<?xml version='1.0' encoding='UTF-8'?>
<routes xmlns:xsi="http://www.w3.org/2001/XMLSchema-instance" xsi:noNamespaceSchemaLocation="http://sumo.dlr.de/xsd/routes_file.xsd">
	<vehicle id="0" depart="7" departLane="best" departSpeed="max" color="red">
 		<route edges="7 6"/>
	</vehicle>
	<vehicle id="1" depart="9" departLane="best" departSpeed="max" color="red">
 		<route edges="3 2"/>
	</vehicle>
	<vehicle id="2" depart="18" departLane="best" departSpeed="max" color="red">
 		<route edges="1 6"/>
	</vehicle>
	<vehicle id="3" depart="55" departLane="best" departSpeed="max" color="red">
 		<route edges="7 6"/>
	</vehicle>
	<vehicle id="4" depart="75" departLane="best" departSpeed="max" color="red">
 		<route edges="3 2"/>
	</vehicle>
	<vehicle id="5" depart="99" departLane="best" departSpeed="max" color="red">
 		<route edges="7 6"/>
	</vehicle>
	<vehicle id="6" depart="115" departLane="best" departSpeed="max" color="red">
 		<route edges="7 6"/>
	</vehicle>
	<vehicle id="7" depart="130" departLane="best" departSpeed="max" color="red">
 		<route edges="7 8"/>
	</vehicle>
	<vehicle id="8" depart="140" departLane="best" departSpeed="max" color="red">
 		<route edges="3 2"/>
	</vehicle>
	<vehicle id="9" depart="203" departLane="best" departSpeed="max" color="red">
 		<route edges="5 8"/>
	</vehicle>
	<vehicle id="10" depart="210" departLane="best" departSpeed="max" color="red">
 		<route edges="5 8"/>
	</vehicle>
	<vehicle id="11" depart="222" departLane="best" departSpeed="max" color="red">
 		<route edges="7 6"/>
	</vehicle>
	<vehicle id="12" depart="230" departLane="best" departSpeed="max" color="red">
 		<route edges="7 4"/>
	</vehicle>
	<vehicle id="13" depart="231" departLane="best" departSpeed="max" color="red">
 		<route edges="7 6"/>
	</vehicle>
	<vehicle id="14" depart="235" departLane="best" departSpeed="max" color="red">
 		<route edges="7 6"/>
	</vehicle>
	<vehicle id="15" depart="244" departLane="best" departSpeed="max" color="red">
 		<route edges="7 6"/>
	</vehicle>
	<vehicle id="16" depart="274" departLane="best" departSpeed="max" color="red">
 		<route edges="3 2"/>
	</vehicle>
	<vehicle id="17" depart="277" departLane="best" departSpeed="max" color="red">
 		<route edges="7 6"/>
	</vehicle>
	<vehicle id="18" depart="295" departLane="best" departSpeed="max" color="red">
 		<route edges="7 6"/>
	</vehicle>
	<vehicle id="19" depart="297" departLane="best" departSpeed="max" color="red">
 		<route edges="3 2"/>
	</vehicle>
	<vehicle id="20" depart="310" departLane="best" departSpeed="max" color="red">
 		<route edges="5 8"/>
	</vehicle>
	<vehicle id="21" depart="312" departLane="best" departSpeed="max" color="red">
 		<route edges="5 8"/>
	</vehicle>
	<vehicle id="22" depart="318" departLane="best" departSpeed="max" color="red">
 		<route edges="5 8"/>
	</vehicle>
	<vehicle id="23" depart="325" departLane="best" departSpeed="max" color="red">
 		<route edges="7 6"/>
	</vehicle>
	<vehicle id="24" depart="327" departLane="best" departSpeed="max" color="red">
 		<route edges="7 6"/>
	</vehicle>
	<vehicle id="25" depart="333" departLane="best" departSpeed="max" color="red">
 		<route edges="7 6"/>
	</vehicle>
	<vehicle id="26" depart="335" departLane="best" departSpeed="max" color="red">
 		<route edges="7 6"/>
	</vehicle>
	<vehicle id="27" depart="337" departLane="best" departSpeed="max" color="red">
 		<route edges="3 8"/>
	</vehicle>
	<vehicle id="28" depart="352" departLane="best" departSpeed="max" color="red">
 		<route edges="3 8"/>
	</vehicle>
	<vehicle id="29" depart="368" departLane="best" departSpeed="max" color="red">
 		<route edges="3 8"/>
	</vehicle>
	<vehicle id="30" depart="369" departLane="best" departSpeed="max" color="red">
 		<route edges="7 6"/>
	</vehicle>
	<vehicle id="31" depart="372" departLane="best" departSpeed="max" color="red">
 		<route edges="7 6"/>
	</vehicle>
	<vehicle id="32" depart="377" departLane="best" departSpeed="max" color="red">
 		<route edges="7 6"/>
	</vehicle>
	<vehicle id="33" depart="378" departLane="best" departSpeed="max" color="red">
 		<route edges="7 6"/>
	</vehicle>
	<vehicle id="34" depart="398" departLane="best" departSpeed="max" color="red">
 		<route edges="7 6"/>
	</vehicle>
	<vehicle id="35" depart="404" departLane="best" departSpeed="max" color="red">
 		<route edges="7 6"/>
	</vehicle>
	<vehicle id="36" depart="442" departLane="best" departSpeed="max" color="red">
 		<route edges="7 4"/>
	</vehicle>
	<vehicle id="37" depart="443" departLane="best" departSpeed="max" color="red">
 		<route edges="7 6"/>
	</vehicle>
	<vehicle id="38" depart="447" departLane="best" departSpeed="max" color="red">
 		<route edges="3 8"/>
	</vehicle>
	<vehicle id="39" depart="450" departLane="best" departSpeed="max" color="red">
 		<route edges="7 4"/>
	</vehicle>
	<vehicle id="40" depart="451" departLane="best" departSpeed="max" color="red">
 		<route edges="7 4"/>
	</vehicle>
	<vehicle id="41" depart="462" departLane="best" departSpeed="max" color="red">
 		<route edges="3 8"/>
	</vehicle>
	<vehicle id="42" depart="463" departLane="best" departSpeed="max" color="red">
 		<route edges="7 6"/>
	</vehicle>
	<vehicle id="43" depart="468" departLane="best" departSpeed="max" color="red">
 		<route edges="5 4"/>
	</vehicle>
	<vehicle id="44" depart="486" departLane="best" departSpeed="max" color="red">
 		<route edges="7 6"/>
	</vehicle>
	<vehicle id="45" depart="500" departLane="best" departSpeed="max" color="red">
 		<route edges="7 2"/>
	</vehicle>
	<vehicle id="46" depart="535" departLane="best" departSpeed="max" color="red">
 		<route edges="7 4"/>
	</vehicle>
	<vehicle id="47" depart="538" departLane="best" departSpeed="max" color="red">
 		<route edges="5 8"/>
	</vehicle>
	<vehicle id="48" depart="539" departLane="best" departSpeed="max" color="red">
 		<route edges="3 8"/>
	</vehicle>
	<vehicle id="49" depart="560" departLane="best" departSpeed="max" color="red">
 		<route edges="5 8"/>
	</vehicle>
	<vehicle id="50" depart="569" departLane="best" departSpeed="max" color="red">
 		<route edges="5 8"/>
	</vehicle>
	<vehicle id="51" depart="575" departLane="best" departSpeed="max" color="red">
 		<route edges="7 6"/>
	</vehicle>
	<vehicle id="52" depart="580" departLane="best" departSpeed="max" color="red">
 		<route edges="3 8"/>
	</vehicle>
	<vehicle id="53" depart="618" departLane="best" departSpeed="max" color="red">
 		<route edges="3 2"/>
	</vehicle>
	<vehicle id="54" depart="619" departLane="best" departSpeed="max" color="red">
 		<route edges="7 6"/>
	</vehicle>
	<vehicle id="55" depart="669" departLane="best" departSpeed="max" color="red">
 		<route edges="3 8"/>
	</vehicle>
	<vehicle id="56" depart="672" departLane="best" departSpeed="max" color="red">
 		<route edges="7 6"/>
	</vehicle>
	<vehicle id="57" depart="681" departLane="best" departSpeed="max" color="red">
 		<route edges="7 6"/>
	</vehicle>
	<vehicle id="58" depart="683" departLane="best" departSpeed="max" color="red">
 		<route edges="7 6"/>
	</vehicle>
	<vehicle id="59" depart="725" departLane="best" departSpeed="max" color="red">
 		<route edges="5 8"/>
	</vehicle>
	<vehicle id="60" depart="728" departLane="best" departSpeed="max" color="red">
 		<route edges="7 6"/>
	</vehicle>
	<vehicle id="61" depart="758" departLane="best" departSpeed="max" color="red">
 		<route edges="5 8"/>
	</vehicle>
	<vehicle id="62" depart="767" departLane="best" departSpeed="max" color="red">
 		<route edges="5 8"/>
	</vehicle>
	<vehicle id="63" depart="771" departLane="best" departSpeed="max" color="red">
 		<route edges="1 6"/>
	</vehicle>
	<vehicle id="64" depart="779" departLane="best" departSpeed="max" color="red">
 		<route edges="3 8"/>
	</vehicle>
	<vehicle id="65" depart="779" departLane="best" departSpeed="max" color="red">
 		<route edges="5 8"/>
	</vehicle>
	<vehicle id="66" depart="782" departLane="best" departSpeed="max" color="red">
 		<route edges="7 6"/>
	</vehicle>
	<vehicle id="67" depart="790" departLane="best" departSpeed="max" color="red">
 		<route edges="7 6"/>
	</vehicle>
	<vehicle id="68" depart="816" departLane="best" departSpeed="max" color="red">
 		<route edges="7 4"/>
	</vehicle>
	<vehicle id="69" depart="817" departLane="best" departSpeed="max" color="red">
 		<route edges="7 6"/>
	</vehicle>
	<vehicle id="70" depart="821" departLane="best" departSpeed="max" color="red">
 		<route edges="7 6"/>
	</vehicle>
	<vehicle id="71" depart="833" departLane="best" departSpeed="max" color="red">
 		<route edges="7 6"/>
	</vehicle>
	<vehicle id="72" depart="835" departLane="best" departSpeed="max" color="red">
 		<route edges="7 6"/>
	</vehicle>
	<vehicle id="73" depart="838" departLane="best" departSpeed="max" color="red">
 		<route edges="7 6"/>
	</vehicle>
	<vehicle id="74" depart="853" departLane="best" departSpeed="max" color="red">
 		<route edges="7 6"/>
	</vehicle>
	<vehicle id="75" depart="897" departLane="best" departSpeed="max" color="red">
 		<route edges="7 6"/>
	</vehicle>
	<vehicle id="76" depart="903" departLane="best" departSpeed="max" color="red">
 		<route edges="7 6"/>
	</vehicle>
	<vehicle id="77" depart="907" departLane="best" departSpeed="max" color="red">
 		<route edges="7 6"/>
	</vehicle>
	<vehicle id="78" depart="931" departLane="best" departSpeed="max" color="red">
 		<route edges="7 6"/>
	</vehicle>
	<vehicle id="79" depart="932" departLane="best" departSpeed="max" color="red">
 		<route edges="3 8"/>
	</vehicle>
	<vehicle id="80" depart="941" departLane="best" departSpeed="max" color="red">
 		<route edges="7 4"/>
	</vehicle>
	<vehicle id="81" depart="957" departLane="best" departSpeed="max" color="red">
 		<route edges="5 4"/>
	</vehicle>
	<vehicle id="82" depart="963" departLane="best" departSpeed="max" color="red">
 		<route edges="5 2"/>
	</vehicle>
	<vehicle id="83" depart="973" departLane="best" departSpeed="max" color="red">
 		<route edges="5 2"/>
	</vehicle>
	<vehicle id="84" depart="1001" departLane="best" departSpeed="max" color="red">
 		<route edges="7 6"/>
	</vehicle>
	<vehicle id="85" depart="1007" departLane="best" departSpeed="max" color="red">
 		<route edges="7 6"/>
	</vehicle>
	<vehicle id="86" depart="1022" departLane="best" departSpeed="max" color="red">
 		<route edges="3 8"/>
	</vehicle>
	<vehicle id="87" depart="1051" departLane="best" departSpeed="max" color="red">
 		<route edges="7 4"/>
	</vehicle>
	<vehicle id="88" depart="1061" departLane="best" departSpeed="max" color="red">
 		<route edges="5 4"/>
	</vehicle>
	<vehicle id="89" depart="1086" departLane="best" departSpeed="max" color="red">
 		<route edges="5 2"/>
	</vehicle>
	<vehicle id="90" depart="1088" departLane="best" departSpeed="max" color="red">
 		<route edges="7 6"/>
	</vehicle>
	<vehicle id="91" depart="1089" departLane="best" departSpeed="max" color="red">
 		<route edges="7 6"/>
	</vehicle>
	<vehicle id="92" depart="1094" departLane="best" departSpeed="max" color="red">
 		<route edges="5 8"/>
	</vehicle>
	<vehicle id="93" depart="1113" departLane="best" departSpeed="max" color="red">
 		<route edges="7 6"/>
	</vehicle>
	<vehicle id="94" depart="1134" departLane="best" departSpeed="max" color="red">
 		<route edges="7 2"/>
	</vehicle>
	<vehicle id="95" depart="1149" departLane="best" departSpeed="max" color="red">
 		<route edges="7 6"/>
	</vehicle>
	<vehicle id="96" depart="1162" departLane="best" departSpeed="max" color="red">
 		<route edges="7 4"/>
	</vehicle>
	<vehicle id="97" depart="1166" departLane="best" departSpeed="max" color="red">
 		<route edges="7 4"/>
	</vehicle>
	<vehicle id="98" depart="1167" departLane="best" departSpeed="max" color="red">
 		<route edges="7 4"/>
	</vehicle>
	<vehicle id="99" depart="1175" departLane="best" departSpeed="max" color="red">
 		<route edges="3 8"/>
	</vehicle>
	<vehicle id="100" depart="1200" departLane="best" departSpeed="max" color="red">
 		<route edges="1 4"/>
	</vehicle>
	<vehicle id="101" depart="1202" departLane="best" departSpeed="max" color="red">
 		<route edges="7 6"/>
	</vehicle>
	<vehicle id="102" depart="1206" departLane="best" departSpeed="max" color="red">
 		<route edges="1 4"/>
	</vehicle>
	<vehicle id="103" depart="1227" departLane="best" departSpeed="max" color="red">
 		<route edges="7 6"/>
	</vehicle>
	<vehicle id="104" depart="1263" departLane="best" departSpeed="max" color="red">
 		<route edges="7 6"/>
	</vehicle>
	<vehicle id="105" depart="1263" departLane="best" departSpeed="max" color="red">
 		<route edges="7 6"/>
	</vehicle>
	<vehicle id="106" depart="1282" departLane="best" departSpeed="max" color="red">
 		<route edges="3 6"/>
	</vehicle>
	<vehicle id="107" depart="1296" departLane="best" departSpeed="max" color="red">
 		<route edges="3 6"/>
	</vehicle>
	<vehicle id="108" depart="1308" departLane="best" departSpeed="max" color="red">
 		<route edges="3 8"/>
	</vehicle>
	<vehicle id="109" depart="1311" departLane="best" departSpeed="max" color="red">
 		<route edges="7 4"/>
	</vehicle>
	<vehicle id="110" depart="1321" departLane="best" departSpeed="max" color="red">
 		<route edges="7 6"/>
	</vehicle>
	<vehicle id="111" depart="1336" departLane="best" departSpeed="max" color="red">
 		<route edges="7 6"/>
	</vehicle>
	<vehicle id="112" depart="1355" departLane="best" departSpeed="max" color="red">
 		<route edges="7 6"/>
	</vehicle>
	<vehicle id="113" depart="1369" departLane="best" departSpeed="max" color="red">
 		<route edges="1 4"/>
	</vehicle>
	<vehicle id="114" depart="1373" departLane="best" departSpeed="max" color="red">
 		<route edges="7 4"/>
	</vehicle>
	<vehicle id="115" depart="1376" departLane="best" departSpeed="max" color="red">
 		<route edges="7 6"/>
	</vehicle>
	<vehicle id="116" depart="1390" departLane="best" departSpeed="max" color="red">
 		<route edges="1 2"/>
	</vehicle>
	<vehicle id="117" depart="1401" departLane="best" departSpeed="max" color="red">
 		<route edges="7 4"/>
	</vehicle>
	<vehicle id="118" depart="1407" departLane="best" departSpeed="max" color="red">
 		<route edges="7 6"/>
	</vehicle>
	<vehicle id="119" depart="1433" departLane="best" departSpeed="max" color="red">
 		<route edges="3 6"/>
	</vehicle>
	<vehicle id="120" depart="1443" departLane="best" departSpeed="max" color="red">
 		<route edges="1 4"/>
	</vehicle>
	<vehicle id="121" depart="1458" departLane="best" departSpeed="max" color="red">
 		<route edges="7 6"/>
	</vehicle>
	<vehicle id="122" depart="1466" departLane="best" departSpeed="max" color="red">
 		<route edges="3 2"/>
	</vehicle>
	<vehicle id="123" depart="1479" departLane="best" departSpeed="max" color="red">
 		<route edges="3 8"/>
	</vehicle>
	<vehicle id="124" depart="1500" departLane="best" departSpeed="max" color="red">
 		<route edges="7 2"/>
	</vehicle>
	<vehicle id="125" depart="1513" departLane="best" departSpeed="max" color="red">
 		<route edges="7 2"/>
	</vehicle>
	<vehicle id="126" depart="1518" departLane="best" departSpeed="max" color="red">
 		<route edges="7 6"/>
	</vehicle>
	<vehicle id="127" depart="1539" departLane="best" departSpeed="max" color="red">
 		<route edges="7 6"/>
	</vehicle>
	<vehicle id="128" depart="1540" departLane="best" departSpeed="max" color="red">
 		<route edges="3 8"/>
	</vehicle>
	<vehicle id="129" depart="1542" departLane="best" departSpeed="max" color="red">
 		<route edges="1 4"/>
	</vehicle>
	<vehicle id="130" depart="1576" departLane="best" departSpeed="max" color="red">
 		<route edges="3 8"/>
	</vehicle>
	<vehicle id="131" depart="1580" departLane="best" departSpeed="max" color="red">
 		<route edges="3 8"/>
	</vehicle>
	<vehicle id="132" depart="1593" departLane="best" departSpeed="max" color="red">
 		<route edges="1 4"/>
	</vehicle>
	<vehicle id="133" depart="1596" departLane="best" departSpeed="max" color="red">
 		<route edges="5 8"/>
	</vehicle>
	<vehicle id="134" depart="1606" departLane="best" departSpeed="max" color="red">
 		<route edges="7 6"/>
	</vehicle>
	<vehicle id="135" depart="1627" departLane="best" departSpeed="max" color="red">
 		<route edges="7 2"/>
	</vehicle>
	<vehicle id="136" depart="1642" departLane="best" departSpeed="max" color="red">
 		<route edges="7 6"/>
	</vehicle>
	<vehicle id="137" depart="1656" departLane="best" departSpeed="max" color="red">
 		<route edges="7 6"/>
	</vehicle>
	<vehicle id="138" depart="1677" departLane="best" departSpeed="max" color="red">
 		<route edges="7 4"/>
	</vehicle>
	<vehicle id="139" depart="1680" departLane="best" departSpeed="max" color="red">
 		<route edges="1 4"/>
	</vehicle>
	<vehicle id="140" depart="1681" departLane="best" departSpeed="max" color="red">
 		<route edges="7 2"/>
	</vehicle>
	<vehicle id="141" depart="1686" departLane="best" departSpeed="max" color="red">
 		<route edges="7 6"/>
	</vehicle>
	<vehicle id="142" depart="1689" departLane="best" departSpeed="max" color="red">
 		<route edges="5 8"/>
	</vehicle>
	<vehicle id="143" depart="1707" departLane="best" departSpeed="max" color="red">
 		<route edges="7 2"/>
	</vehicle>
	<vehicle id="144" depart="1712" departLane="best" departSpeed="max" color="red">
 		<route edges="7 4"/>
	</vehicle>
	<vehicle id="145" depart="1732" departLane="best" departSpeed="max" color="red">
 		<route edges="7 2"/>
	</vehicle>
	<vehicle id="146" depart="1735" departLane="best" departSpeed="max" color="red">
 		<route edges="7 6"/>
	</vehicle>
	<vehicle id="147" depart="1738" departLane="best" departSpeed="max" color="red">
 		<route edges="7 2"/>
	</vehicle>
	<vehicle id="148" depart="1748" departLane="best" departSpeed="max" color="red">
 		<route edges="7 6"/>
	</vehicle>
	<vehicle id="149" depart="1771" departLane="best" departSpeed="max" color="red">
 		<route edges="7 6"/>
	</vehicle>
	<vehicle id="150" depart="1787" departLane="best" departSpeed="max" color="red">
 		<route edges="5 8"/>
	</vehicle>
	<vehicle id="151" depart="1789" departLane="best" departSpeed="max" color="red">
 		<route edges="7 6"/>
	</vehicle>
	<vehicle id="152" depart="1803" departLane="best" departSpeed="max" color="red">
 		<route edges="3 8"/>
	</vehicle>
	<vehicle id="153" depart="1816" departLane="best" departSpeed="max" color="red">
 		<route edges="1 4"/>
	</vehicle>
	<vehicle id="154" depart="1830" departLane="best" departSpeed="max" color="red">
 		<route edges="3 8"/>
	</vehicle>
	<vehicle id="155" depart="1839" departLane="best" departSpeed="max" color="red">
 		<route edges="5 8"/>
	</vehicle>
	<vehicle id="156" depart="1867" departLane="best" departSpeed="max" color="red">
 		<route edges="3 8"/>
	</vehicle>
	<vehicle id="157" depart="1900" departLane="best" departSpeed="max" color="red">
 		<route edges="5 8"/>
	</vehicle>
	<vehicle id="158" depart="1900" departLane="best" departSpeed="max" color="red">
 		<route edges="5 8"/>
	</vehicle>
	<vehicle id="159" depart="1945" departLane="best" departSpeed="max" color="red">
 		<route edges="3 8"/>
	</vehicle>
	<vehicle id="160" depart="1964" departLane="best" departSpeed="max" color="red">
 		<route edges="5 8"/>
	</vehicle>
	<vehicle id="161" depart="1969" departLane="best" departSpeed="max" color="red">
 		<route edges="5 8"/>
	</vehicle>
	<vehicle id="162" depart="1999" departLane="best" departSpeed="max" color="red">
 		<route edges="7 6"/>
	</vehicle>
	<vehicle id="163" depart="2009" departLane="best" departSpeed="max" color="red">
 		<route edges="7 6"/>
	</vehicle>
	<vehicle id="164" depart="2011" departLane="best" departSpeed="max" color="red">
 		<route edges="5 8"/>
	</vehicle>
	<vehicle id="165" depart="2020" departLane="best" departSpeed="max" color="red">
 		<route edges="5 8"/>
	</vehicle>
	<vehicle id="166" depart="2030" departLane="best" departSpeed="max" color="red">
 		<route edges="1 4"/>
	</vehicle>
	<vehicle id="167" depart="2041" departLane="best" departSpeed="max" color="red">
 		<route edges="3 8"/>
	</vehicle>
	<vehicle id="168" depart="2042" departLane="best" departSpeed="max" color="red">
 		<route edges="3 8"/>
	</vehicle>
	<vehicle id="169" depart="2063" departLane="best" departSpeed="max" color="red">
 		<route edges="5 8"/>
	</vehicle>
	<vehicle id="170" depart="2076" departLane="best" departSpeed="max" color="red">
 		<route edges="5 8"/>
	</vehicle>
	<vehicle id="171" depart="2092" departLane="best" departSpeed="max" color="red">
 		<route edges="5 8"/>
	</vehicle>
	<vehicle id="172" depart="2138" departLane="best" departSpeed="max" color="red">
 		<route edges="1 4"/>
	</vehicle>
	<vehicle id="173" depart="2147" departLane="best" departSpeed="max" color="red">
 		<route edges="7 4"/>
	</vehicle>
	<vehicle id="174" depart="2154" departLane="best" departSpeed="max" color="red">
 		<route edges="7 6"/>
	</vehicle>
	<vehicle id="175" depart="2178" departLane="best" departSpeed="max" color="red">
 		<route edges="3 8"/>
	</vehicle>
	<vehicle id="176" depart="2189" departLane="best" departSpeed="max" color="red">
 		<route edges="5 8"/>
	</vehicle>
	<vehicle id="177" depart="2234" departLane="best" departSpeed="max" color="red">
 		<route edges="7 4"/>
	</vehicle>
	<vehicle id="178" depart="2273" departLane="best" departSpeed="max" color="red">
 		<route edges="5 8"/>
	</vehicle>
	<vehicle id="179" depart="2274" departLane="best" departSpeed="max" color="red">
 		<route edges="5 8"/>
	</vehicle>
	<vehicle id="180" depart="2287" departLane="best" departSpeed="max" color="red">
 		<route edges="3 8"/>
	</vehicle>
	<vehicle id="181" depart="2318" departLane="best" departSpeed="max" color="red">
 		<route edges="7 4"/>
	</vehicle>
	<vehicle id="182" depart="2319" departLane="best" departSpeed="max" color="red">
 		<route edges="7 4"/>
	</vehicle>
	<vehicle id="183" depart="2390" departLane="best" departSpeed="max" color="red">
 		<route edges="5 8"/>
	</vehicle>
	<vehicle id="184" depart="2417" departLane="best" departSpeed="max" color="red">
 		<route edges="5 8"/>
	</vehicle>
	<vehicle id="185" depart="2426" departLane="best" departSpeed="max" color="red">
 		<route edges="7 4"/>
	</vehicle>
	<vehicle id="186" depart="2434" departLane="best" departSpeed="max" color="red">
 		<route edges="7 6"/>
	</vehicle>
	<vehicle id="187" depart="2457" departLane="best" departSpeed="max" color="red">
 		<route edges="7 8"/>
	</vehicle>
	<vehicle id="188" depart="2459" departLane="best" departSpeed="max" color="red">
 		<route edges="7 6"/>
	</vehicle>
	<vehicle id="189" depart="2465" departLane="best" departSpeed="max" color="red">
 		<route edges="7 6"/>
	</vehicle>
	<vehicle id="190" depart="2481" departLane="best" departSpeed="max" color="red">
 		<route edges="1 6"/>
	</vehicle>
	<vehicle id="191" depart="2503" departLane="best" departSpeed="max" color="red">
 		<route edges="7 6"/>
	</vehicle>
	<vehicle id="192" depart="2508" departLane="best" departSpeed="max" color="red">
 		<route edges="7 6"/>
	</vehicle>
	<vehicle id="193" depart="2515" departLane="best" departSpeed="max" color="red">
 		<route edges="1 6"/>
	</vehicle>
	<vehicle id="194" depart="2517" departLane="best" departSpeed="max" color="red">
 		<route edges="7 8"/>
	</vehicle>
	<vehicle id="195" depart="2535" departLane="best" departSpeed="max" color="red">
 		<route edges="7 4"/>
	</vehicle>
	<vehicle id="196" depart="2556" departLane="best" departSpeed="max" color="red">
 		<route edges="3 4"/>
	</vehicle>
	<vehicle id="197" depart="2571" departLane="best" departSpeed="max" color="red">
 		<route edges="7 8"/>
	</vehicle>
	<vehicle id="198" depart="2581" departLane="best" departSpeed="max" color="red">
 		<route edges="7 6"/>
	</vehicle>
	<vehicle id="199" depart="2596" departLane="best" departSpeed="max" color="red">
 		<route edges="7 6"/>
	</vehicle>
	<vehicle id="200" depart="2638" departLane="best" departSpeed="max" color="red">
 		<route edges="7 6"/>
	</vehicle>
	<vehicle id="201" depart="2638" departLane="best" departSpeed="max" color="red">
 		<route edges="7 6"/>
	</vehicle>
	<vehicle id="202" depart="2651" departLane="best" departSpeed="max" color="red">
 		<route edges="1 6"/>
	</vehicle>
	<vehicle id="203" depart="2662" departLane="best" departSpeed="max" color="red">
 		<route edges="7 6"/>
	</vehicle>
	<vehicle id="204" depart="2707" departLane="best" departSpeed="max" color="red">
 		<route edges="5 8"/>
	</vehicle>
	<vehicle id="205" depart="2722" departLane="best" departSpeed="max" color="red">
 		<route edges="7 6"/>
	</vehicle>
	<vehicle id="206" depart="2747" departLane="best" departSpeed="max" color="red">
 		<route edges="1 8"/>
	</vehicle>
	<vehicle id="207" depart="2785" departLane="best" departSpeed="max" color="red">
 		<route edges="7 6"/>
	</vehicle>
	<vehicle id="208" depart="2794" departLane="best" departSpeed="max" color="red">
 		<route edges="5 8"/>
	</vehicle>
	<vehicle id="209" depart="2807" departLane="best" departSpeed="max" color="red">
 		<route edges="1 6"/>
	</vehicle>
	<vehicle id="210" depart="2812" departLane="best" departSpeed="max" color="red">
 		<route edges="7 4"/>
	</vehicle>
	<vehicle id="211" depart="2814" departLane="best" departSpeed="max" color="red">
 		<route edges="7 6"/>
	</vehicle>
	<vehicle id="212" depart="2816" departLane="best" departSpeed="max" color="red">
 		<route edges="5 8"/>
	</vehicle>
	<vehicle id="213" depart="2831" departLane="best" departSpeed="max" color="red">
 		<route edges="7 6"/>
	</vehicle>
	<vehicle id="214" depart="2834" departLane="best" departSpeed="max" color="red">
 		<route edges="7 6"/>
	</vehicle>
	<vehicle id="215" depart="2838" departLane="best" departSpeed="max" color="red">
 		<route edges="7 6"/>
	</vehicle>
	<vehicle id="216" depart="2843" departLane="best" departSpeed="max" color="red">
 		<route edges="1 2"/>
	</vehicle>
	<vehicle id="217" depart="2858" departLane="best" departSpeed="max" color="red">
 		<route edges="3 8"/>
	</vehicle>
	<vehicle id="218" depart="2867" departLane="best" departSpeed="max" color="red">
 		<route edges="7 6"/>
	</vehicle>
	<vehicle id="219" depart="2867" departLane="best" departSpeed="max" color="red">
 		<route edges="7 4"/>
	</vehicle>
	<vehicle id="220" depart="2873" departLane="best" departSpeed="max" color="red">
 		<route edges="7 6"/>
	</vehicle>
	<vehicle id="221" depart="2945" departLane="best" departSpeed="max" color="red">
 		<route edges="7 4"/>
	</vehicle>
	<vehicle id="222" depart="2961" departLane="best" departSpeed="max" color="red">
 		<route edges="7 6"/>
	</vehicle>
	<vehicle id="223" depart="2976" departLane="best" departSpeed="max" color="red">
 		<route edges="1 6"/>
	</vehicle>
	<vehicle id="224" depart="2978" departLane="best" departSpeed="max" color="red">
 		<route edges="1 8"/>
	</vehicle>
	<vehicle id="225" depart="2985" departLane="best" departSpeed="max" color="red">
 		<route edges="3 8"/>
	</vehicle>
	<vehicle id="226" depart="3001" departLane="best" departSpeed="max" color="red">
 		<route edges="5 8"/>
	</vehicle>
	<vehicle id="227" depart="3012" departLane="best" departSpeed="max" color="red">
 		<route edges="5 4"/>
	</vehicle>
	<vehicle id="228" depart="3015" departLane="best" departSpeed="max" color="red">
 		<route edges="7 6"/>
	</vehicle>
	<vehicle id="229" depart="3028" departLane="best" departSpeed="max" color="red">
 		<route edges="7 6"/>
	</vehicle>
	<vehicle id="230" depart="3039" departLane="best" departSpeed="max" color="red">
 		<route edges="5 8"/>
	</vehicle>
	<vehicle id="231" depart="3075" departLane="best" departSpeed="max" color="red">
 		<route edges="7 6"/>
	</vehicle>
	<vehicle id="232" depart="3088" departLane="best" departSpeed="max" color="red">
 		<route edges="5 4"/>
	</vehicle>
	<vehicle id="233" depart="3089" departLane="best" departSpeed="max" color="red">
 		<route edges="7 6"/>
	</vehicle>
	<vehicle id="234" depart="3110" departLane="best" departSpeed="max" color="red">
 		<route edges="7 6"/>
	</vehicle>
	<vehicle id="235" depart="3116" departLane="best" departSpeed="max" color="red">
 		<route edges="7 6"/>
	</vehicle>
	<vehicle id="236" depart="3128" departLane="best" departSpeed="max" color="red">
 		<route edges="1 4"/>
	</vehicle>
	<vehicle id="237" depart="3128" departLane="best" departSpeed="max" color="red">
 		<route edges="7 6"/>
	</vehicle>
	<vehicle id="238" depart="3132" departLane="best" departSpeed="max" color="red">
 		<route edges="7 6"/>
	</vehicle>
	<vehicle id="239" depart="3136" departLane="best" departSpeed="max" color="red">
 		<route edges="1 4"/>
	</vehicle>
	<vehicle id="240" depart="3147" departLane="best" departSpeed="max" color="red">
 		<route edges="7 6"/>
	</vehicle>
	<vehicle id="241" depart="3151" departLane="best" departSpeed="max" color="red">
 		<route edges="7 6"/>
	</vehicle>
	<vehicle id="242" depart="3179" departLane="best" departSpeed="max" color="red">
 		<route edges="1 4"/>
	</vehicle>
	<vehicle id="243" depart="3243" departLane="best" departSpeed="max" color="red">
 		<route edges="7 6"/>
	</vehicle>
	<vehicle id="244" depart="3254" departLane="best" departSpeed="max" color="red">
 		<route edges="7 4"/>
	</vehicle>
	<vehicle id="245" depart="3267" departLane="best" departSpeed="max" color="red">
 		<route edges="1 4"/>
	</vehicle>
	<vehicle id="246" depart="3308" departLane="best" departSpeed="max" color="red">
 		<route edges="7 6"/>
	</vehicle>
	<vehicle id="247" depart="3313" departLane="best" departSpeed="max" color="red">
 		<route edges="5 2"/>
	</vehicle>
	<vehicle id="248" depart="3333" departLane="best" departSpeed="max" color="red">
 		<route edges="7 6"/>
	</vehicle>
	<vehicle id="249" depart="3347" departLane="best" departSpeed="max" color="red">
 		<route edges="7 6"/>
	</vehicle>
	<vehicle id="250" depart="3354" departLane="best" departSpeed="max" color="red">
 		<route edges="7 6"/>
	</vehicle>
	<vehicle id="251" depart="3367" departLane="best" departSpeed="max" color="red">
 		<route edges="3 8"/>
	</vehicle>
	<vehicle id="252" depart="3413" departLane="best" departSpeed="max" color="red">
 		<route edges="5 8"/>
	</vehicle>
	<vehicle id="253" depart="3426" departLane="best" departSpeed="max" color="red">
 		<route edges="7 4"/>
	</vehicle>