<?xml version="1.0" encoding="UTF-8"?>

<!-- generated on 2022-12-01 08:48:04 by Eclipse SUMO netedit Version 1.14.1
<configuration xmlns:xsi="http://www.w3.org/2001/XMLSchema-instance" xsi:noNamespaceSchemaLocation="http://sumo.dlr.de/xsd/netconvertConfiguration.xsd">

    <input>
        <sumo-net-file value="C:\Users\Pc\Desktop\mosas-projesi-master\Kilis%204\Kilis_static.net.xml"/>
    </input>

    <output>
        <output-file value="C:\Users\Pc\Desktop\mosas-projesi-master\Kilis%204\Kilis_static.net.xml"/>
    </output>

    <processing>
        <geometry.min-radius.fix.railways value="false"/>
        <geometry.max-grade.fix value="false"/>
        <offset.disable-normalization value="true"/>
        <lefthand value="false"/>
    </processing>

    <junctions>
        <no-turnarounds value="true"/>
        <junctions.corner-detail value="0"/>
        <junctions.limit-turn-speed value="-1"/>
        <rectangular-lane-cut value="false"/>
    </junctions>

    <pedestrian>
        <walkingareas value="false"/>
    </pedestrian>

</configuration>
-->

<net version="1.9" xmlns:xsi="http://www.w3.org/2001/XMLSchema-instance" xsi:noNamespaceSchemaLocation="http://sumo.dlr.de/xsd/net_file.xsd">

    <location netOffset="0.00,0.00" convBoundary="-109.93,-163.16,340.39,97.86" origBoundary="-10000000000.00,-10000000000.00,10000000000.00,10000000000.00" projParameter="!"/>

    <edge id=":intersection_0" function="internal">
        <lane id=":intersection_0_0" index="0" speed="13.89" length="9.03" shape="31.87,43.91 31.52,41.46 30.47,39.71 28.72,38.66 26.27,38.31"/>
    </edge>
    <edge id=":intersection_1" function="internal">
        <lane id=":intersection_1_0" index="0" speed="13.89" length="20.80" shape="31.87,43.91 31.87,23.10"/>
        <lane id=":intersection_1_1" index="1" speed="13.89" length="20.80" shape="35.07,43.91 35.07,23.10"/>
        <lane id=":intersection_1_2" index="2" speed="13.89" length="20.80" shape="38.27,43.91 38.27,23.10"/>
    </edge>
    <edge id=":intersection_4" function="internal">
        <lane id=":intersection_4_0" index="0" speed="13.89" length="22.00" shape="38.27,43.91 39.22,38.65 42.07,34.90 46.82,32.65 53.47,31.90"/>
    </edge>
    <edge id=":intersection_5" function="internal">
        <lane id=":intersection_5_0" index="0" speed="13.89" length="4.67" shape="38.27,43.91 39.07,42.71 39.87,42.31 40.67,42.71 41.47,43.91"/>
    </edge>
    <edge id=":intersection_6" function="internal">
        <lane id=":intersection_6_0" index="0" speed="13.89" length="9.03" shape="53.47,38.30 51.02,38.65 49.27,39.70 48.22,41.45 47.87,43.91"/>
    </edge>
    <edge id=":intersection_7" function="internal">
        <lane id=":intersection_7_0" index="0" speed="13.89" length="27.20" shape="53.47,38.30 26.27,38.31"/>
        <lane id=":intersection_7_1" index="1" speed="13.89" length="27.20" shape="53.47,35.10 26.27,35.11"/>
    </edge>
    <edge id=":intersection_9" function="internal">
        <lane id=":intersection_9_0" index="0" speed="13.89" length="21.99" shape="53.47,35.10 46.82,34.35 42.07,32.10 39.22,28.35 38.27,23.10"/>
    </edge>
    <edge id=":intersection_10" function="internal">
        <lane id=":intersection_10_0" index="0" speed="13.89" length="4.67" shape="53.47,35.10 52.27,34.30 51.87,33.50 52.27,32.70 53.47,31.90"/>
    </edge>
    <edge id=":intersection_11" function="internal">
        <lane id=":intersection_11_0" index="0" speed="13.89" length="9.03" shape="47.87,23.10 48.22,25.55 49.27,27.30 51.02,28.35 53.47,28.70"/>
    </edge>
    <edge id=":intersection_12" function="internal">
        <lane id=":intersection_12_0" index="0" speed="13.89" length="20.80" shape="47.87,23.10 47.87,43.91"/>
        <lane id=":intersection_12_1" index="1" speed="13.89" length="20.80" shape="44.67,23.10 44.67,43.91"/>
        <lane id=":intersection_12_2" index="2" speed="13.89" length="20.80" shape="41.47,23.10 41.47,43.91"/>
    </edge>
    <edge id=":intersection_15" function="internal">
        <lane id=":intersection_15_0" index="0" speed="13.89" length="22.00" shape="41.47,23.10 40.52,28.35 37.67,32.10 32.92,34.35 26.27,35.11"/>
    </edge>
    <edge id=":intersection_16" function="internal">
        <lane id=":intersection_16_0" index="0" speed="13.89" length="4.67" shape="41.47,23.10 40.67,24.30 39.87,24.70 39.07,24.30 38.27,23.10"/>
    </edge>
    <edge id=":intersection_17" function="internal">
        <lane id=":intersection_17_0" index="0" speed="13.89" length="9.04" shape="26.26,28.71 28.72,28.36 30.47,27.30 31.52,25.55 31.87,23.10"/>
    </edge>
    <edge id=":intersection_18" function="internal">
        <lane id=":intersection_18_0" index="0" speed="13.89" length="27.21" shape="26.26,28.71 53.47,28.70"/>
        <lane id=":intersection_18_1" index="1" speed="13.89" length="27.21" shape="26.27,31.91 53.47,31.90"/>
    </edge>
    <edge id=":intersection_20" function="internal">
        <lane id=":intersection_20_0" index="0" speed="13.89" length="22.00" shape="26.27,31.91 32.92,32.65 37.67,34.90 40.52,38.65 41.47,43.91"/>
    </edge>
    <edge id=":intersection_21" function="internal">
        <lane id=":intersection_21_0" index="0" speed="13.89" length="4.67" shape="26.27,31.91 27.47,32.71 27.87,33.51 27.47,34.31 26.27,35.11"/>
    </edge>

    <edge id="E2TL" from="e" to="intersection" priority="1">
        <lane id="E2TL_0" index="0" speed="13.89" length="286.92" shape="340.39,38.40 53.47,38.30"/>
        <lane id="E2TL_1" index="1" speed="13.89" length="286.92" shape="340.39,35.20 53.47,35.10"/>
    </edge>
    <edge id="N2TL" from="n" to="intersection" priority="1">
        <lane id="N2TL_0" index="0" speed="13.89" length="53.95" shape="31.87,97.86 31.87,43.91"/>
        <lane id="N2TL_1" index="1" speed="13.89" length="53.95" shape="35.07,97.86 35.07,43.91"/>
        <lane id="N2TL_2" index="2" speed="13.89" length="53.95" shape="38.27,97.86 38.27,43.91"/>
    </edge>
    <edge id="S2TL" from="s" to="intersection" priority="1">
        <lane id="S2TL_0" index="0" speed="13.89" length="186.26" shape="47.90,-163.16 47.87,23.10"/>
        <lane id="S2TL_1" index="1" speed="13.89" length="186.26" shape="44.70,-163.16 44.67,23.10"/>
        <lane id="S2TL_2" index="2" speed="13.89" length="186.26" shape="41.50,-163.16 41.47,23.10"/>
    </edge>
    <edge id="TL2E" from="intersection" to="e" priority="1">
        <lane id="TL2E_0" index="0" speed="13.89" length="286.92" shape="53.47,28.70 340.39,28.80"/>
        <lane id="TL2E_1" index="1" speed="13.89" length="286.92" shape="53.47,31.90 340.39,32.00"/>
    </edge>
    <edge id="TL2N" from="intersection" to="n" priority="1">
        <lane id="TL2N_0" index="0" speed="13.89" length="53.95" shape="47.87,43.91 47.87,97.86"/>
        <lane id="TL2N_1" index="1" speed="13.89" length="53.95" shape="44.67,43.91 44.67,97.86"/>
        <lane id="TL2N_2" index="2" speed="13.89" length="53.95" shape="41.47,43.91 41.47,97.86"/>
    </edge>
    <edge id="TL2S" from="intersection" to="s" priority="1">
        <lane id="TL2S_0" index="0" speed="13.89" length="186.26" shape="31.87,23.10 31.90,-163.16"/>
        <lane id="TL2S_1" index="1" speed="13.89" length="186.26" shape="35.07,23.10 35.10,-163.16"/>
        <lane id="TL2S_2" index="2" speed="13.89" length="186.26" shape="38.27,23.10 38.30,-163.16"/>
    </edge>
    <edge id="TL2W" from="intersection" to="w" priority="1">
        <lane id="TL2W_0" index="0" speed="13.89" length="136.20" shape="26.27,38.31 -109.93,38.39"/>
        <lane id="TL2W_1" index="1" speed="13.89" length="136.20" shape="26.27,35.11 -109.93,35.19"/>
    </edge>
    <edge id="W2TL" from="w" to="intersection" priority="1">
        <lane id="W2TL_0" index="0" speed="13.89" length="136.20" shape="-109.93,28.79 26.26,28.71"/>
        <lane id="W2TL_1" index="1" speed="13.89" length="136.20" shape="-109.93,31.99 26.27,31.91"/>
    </edge>

    <tlLogic id="intersection" type="static" programID="0" offset="0">
        <phase duration="15" state="rrrrrrrrrrrGGGGGGrrrrr"/>
        <phase duration="2"  state="rrrrrrrrrrryyyyyyrrrrr"/>
        <phase duration="15" state="GGGGGGrrrrrrrrrrrrrrrr"/>
        <phase duration="2"  state="yyyyyyrrrrrrrrrrrrrrrr"/>
        <phase duration="20" state="rrrrrrrrrrrrrrrrrGGGGG"/>
        <phase duration="2"  state="rrrrrrrrrrrrrrrrryyyyy"/>
        <phase duration="15" state="rrrrrrGGGGGrrrrrrrrrrr"/>
        <phase duration="2"  state="rrrrrryyyyyrrrrrrrrrrr"/>
    </tlLogic>

    <junction id="e" type="dead_end" x="340.39" y="33.60" incLanes="TL2E_0 TL2E_1" intLanes="" shape="340.39,33.60 340.39,27.20 340.39,33.60"/>
    <junction id="intersection" type="traffic_light" x="39.87" y="33.50" incLanes="N2TL_0 N2TL_1 N2TL_2 E2TL_0 E2TL_1 S2TL_0 S2TL_1 S2TL_2 W2TL_0 W2TL_1" intLanes=":intersection_0_0 :intersection_1_0 :intersection_1_1 :intersection_1_2 :intersection_4_0 :intersection_5_0 :intersection_6_0 :intersection_7_0 :intersection_7_1 :intersection_9_0 :intersection_10_0 :intersection_11_0 :intersection_12_0 :intersection_12_1 :intersection_12_2 :intersection_15_0 :intersection_16_0 :intersection_17_0 :intersection_18_0 :intersection_18_1 :intersection_20_0 :intersection_21_0" shape="30.27,43.91 49.47,43.91 53.47,39.90 53.47,27.10 49.47,23.10 30.27,23.10 26.26,27.11 26.27,39.91">
        <request index="0"  response="0000000000000000000000" foes="0000000000000110000000" cont="0"/>
        <request index="1"  response="0000000000000000000000" foes="0111111000001110000000" cont="0"/>
        <request index="2"  response="0000000000000000000000" foes="0111111000001110000000" cont="0"/>
        <request index="3"  response="0000000000000000000000" foes="0111111000001110000000" cont="0"/>
        <request index="4"  response="0000000111000000000000" foes="0111000111011110000000" cont="0"/>
        <request index="5"  response="0100000111000000000000" foes="0100000111000000000000" cont="0"/>
        <request index="6"  response="0000000111000000000000" foes="0000000111000000000000" cont="0"/>
        <request index="7"  response="0000001111000000011111" foes="1100001111000000011111" cont="0"/>
        <request index="8"  response="0000001111000000011111" foes="1100001111000000011111" cont="0"/>
        <request index="9"  response="0011001111000000011110" foes="0011011111000000011110" cont="0"/>
        <request index="10" response="0011000000000000010000" foes="0011000000000000010000" cont="0"/>
        <request index="11" response="0000000000000000000000" foes="0011000000000000000000" cont="0"/>
        <request index="12" response="0000000000000000000000" foes="0111000000001111110000" cont="0"/>
        <request index="13" response="0000000000000000000000" foes="0111000000001111110000" cont="0"/>
        <request index="14" response="0000000000000000000000" foes="0111000000001111110000" cont="0"/>
        <request index="15" response="0000000000000000001110" foes="1111000000001110001110" cont="0"/>
        <request index="16" response="0000000000001000001110" foes="0000000000001000001110" cont="0"/>
        <request index="17" response="0000000000000000001110" foes="0000000000000000001110" cont="0"/>
        <request index="18" response="0000001111100000011110" foes="0000001111111000011110" cont="0"/>
        <request index="19" response="0000001111100000011110" foes="0000001111111000011110" cont="0"/>
        <request index="20" response="0000001111000110011110" foes="0000001111000110111110" cont="0"/>
        <request index="21" response="0000001000000110000000" foes="0000001000000110000000" cont="0"/>
    </junction>
    <junction id="n" type="dead_end" x="39.87" y="97.86" incLanes="TL2N_0 TL2N_1 TL2N_2" intLanes="" shape="39.87,97.86 49.47,97.86 39.87,97.86"/>
    <junction id="s" type="dead_end" x="39.90" y="-163.16" incLanes="TL2S_0 TL2S_1 TL2S_2" intLanes="" shape="39.90,-163.16 30.30,-163.16 39.90,-163.16"/>
    <junction id="w" type="dead_end" x="-109.93" y="33.59" incLanes="TL2W_0 TL2W_1" intLanes="" shape="-109.93,33.59 -109.93,39.99 -109.93,33.59"/>

    <connection from="E2TL" to="TL2N" fromLane="0" toLane="0" via=":intersection_6_0" tl="intersection" linkIndex="6" dir="r" state="o"/>
    <connection from="E2TL" to="TL2W" fromLane="0" toLane="0" via=":intersection_7_0" tl="intersection" linkIndex="7" dir="s" state="o"/>
    <connection from="E2TL" to="TL2W" fromLane="1" toLane="1" via=":intersection_7_1" tl="intersection" linkIndex="8" dir="s" state="o"/>
    <connection from="E2TL" to="TL2S" fromLane="1" toLane="2" via=":intersection_9_0" tl="intersection" linkIndex="9" dir="l" state="o"/>
    <connection from="E2TL" to="TL2E" fromLane="1" toLane="1" via=":intersection_10_0" tl="intersection" linkIndex="10" dir="t" state="o"/>
    <connection from="N2TL" to="TL2W" fromLane="0" toLane="0" via=":intersection_0_0" tl="intersection" linkIndex="0" dir="r" state="O"/>
    <connection from="N2TL" to="TL2S" fromLane="0" toLane="0" via=":intersection_1_0" tl="intersection" linkIndex="1" dir="s" state="O"/>
    <connection from="N2TL" to="TL2S" fromLane="1" toLane="1" via=":intersection_1_1" tl="intersection" linkIndex="2" dir="s" state="O"/>
    <connection from="N2TL" to="TL2S" fromLane="2" toLane="2" via=":intersection_1_2" tl="intersection" linkIndex="3" dir="s" state="O"/>
    <connection from="N2TL" to="TL2E" fromLane="2" toLane="1" via=":intersection_4_0" tl="intersection" linkIndex="4" dir="l" state="o"/>
    <connection from="N2TL" to="TL2N" fromLane="2" toLane="2" via=":intersection_5_0" tl="intersection" linkIndex="5" dir="t" state="o"/>
    <connection from="S2TL" to="TL2E" fromLane="0" toLane="0" via=":intersection_11_0" tl="intersection" linkIndex="11" dir="r" state="O"/>
    <connection from="S2TL" to="TL2N" fromLane="0" toLane="0" via=":intersection_12_0" tl="intersection" linkIndex="12" dir="s" state="O"/>
    <connection from="S2TL" to="TL2N" fromLane="1" toLane="1" via=":intersection_12_1" tl="intersection" linkIndex="13" dir="s" state="O"/>
    <connection from="S2TL" to="TL2N" fromLane="2" toLane="2" via=":intersection_12_2" tl="intersection" linkIndex="14" dir="s" state="O"/>
    <connection from="S2TL" to="TL2W" fromLane="2" toLane="1" via=":intersection_15_0" tl="intersection" linkIndex="15" dir="l" state="o"/>
    <connection from="S2TL" to="TL2S" fromLane="2" toLane="2" via=":intersection_16_0" tl="intersection" linkIndex="16" dir="t" state="o"/>
    <connection from="W2TL" to="TL2S" fromLane="0" toLane="0" via=":intersection_17_0" tl="intersection" linkIndex="17" dir="r" state="o"/>
    <connection from="W2TL" to="TL2E" fromLane="0" toLane="0" via=":intersection_18_0" tl="intersection" linkIndex="18" dir="s" state="o"/>
    <connection from="W2TL" to="TL2E" fromLane="1" toLane="1" via=":intersection_18_1" tl="intersection" linkIndex="19" dir="s" state="o"/>
    <connection from="W2TL" to="TL2N" fromLane="1" toLane="2" via=":intersection_20_0" tl="intersection" linkIndex="20" dir="l" state="o"/>
    <connection from="W2TL" to="TL2W" fromLane="1" toLane="1" via=":intersection_21_0" tl="intersection" linkIndex="21" dir="t" state="o"/>

    <connection from=":intersection_0" to="TL2W" fromLane="0" toLane="0" dir="r" state="M"/>
    <connection from=":intersection_1" to="TL2S" fromLane="0" toLane="0" dir="s" state="M"/>
    <connection from=":intersection_1" to="TL2S" fromLane="1" toLane="1" dir="s" state="M"/>
    <connection from=":intersection_1" to="TL2S" fromLane="2" toLane="2" dir="s" state="M"/>
    <connection from=":intersection_4" to="TL2E" fromLane="0" toLane="1" dir="l" state="M"/>
    <connection from=":intersection_5" to="TL2N" fromLane="0" toLane="2" dir="t" state="M"/>
    <connection from=":intersection_6" to="TL2N" fromLane="0" toLane="0" dir="r" state="M"/>
    <connection from=":intersection_7" to="TL2W" fromLane="0" toLane="0" dir="s" state="M"/>
    <connection from=":intersection_7" to="TL2W" fromLane="1" toLane="1" dir="s" state="M"/>
    <connection from=":intersection_9" to="TL2S" fromLane="0" toLane="2" dir="l" state="M"/>
    <connection from=":intersection_10" to="TL2E" fromLane="0" toLane="1" dir="t" state="M"/>
    <connection from=":intersection_11" to="TL2E" fromLane="0" toLane="0" dir="r" state="M"/>
    <connection from=":intersection_12" to="TL2N" fromLane="0" toLane="0" dir="s" state="M"/>
    <connection from=":intersection_12" to="TL2N" fromLane="1" toLane="1" dir="s" state="M"/>
    <connection from=":intersection_12" to="TL2N" fromLane="2" toLane="2" dir="s" state="M"/>
    <connection from=":intersection_15" to="TL2W" fromLane="0" toLane="1" dir="l" state="M"/>
    <connection from=":intersection_16" to="TL2S" fromLane="0" toLane="2" dir="t" state="M"/>
    <connection from=":intersection_17" to="TL2S" fromLane="0" toLane="0" dir="r" state="M"/>
    <connection from=":intersection_18" to="TL2E" fromLane="0" toLane="0" dir="s" state="M"/>
    <connection from=":intersection_18" to="TL2E" fromLane="1" toLane="1" dir="s" state="M"/>
    <connection from=":intersection_20" to="TL2N" fromLane="0" toLane="2" dir="l" state="M"/>
    <connection from=":intersection_21" to="TL2W" fromLane="0" toLane="1" dir="t" state="M"/>

</net>
