<routes>
                <route id="route_ns" edges="3 2"/>
                <route id="route_nw" edges="3 8"/>
                <route id="route_ne" edges="3 6"/>
                <route id="route_we" edges="7 6"/>
                <route id="route_wn" edges="7 4"/>
                <route id="route_ws" edges="7 2"/>
                <route id="route_ew" edges="5 8"/>
                <route id="route_en" edges="5 4"/>
                <route id="route_es" edges="5 2"/>
                <route id="route_sn" edges="1 4"/>
                <route id="route_se" edges="1 6"/>
                <route id="route_sw" edges="1 8"/>
    <flow id="flow_ns_0" route="route_ns" begin="0" end="2000" vehsPerHour="100" departSp2000d="max" departPos="base" departLane="best"/>
    <flow id="flow_nw_0" route="route_nw" begin="0" end="2000" vehsPerHour="100" departSp2000d="max" departPos="base" departLane="best"/>
    <flow id="flow_ne_0" route="route_ne" begin="0" end="2000" vehsPerHour="200" departSp2000d="max" departPos="base" departLane="best"/>
    <flow id="flow_sw_0" route="route_sw" begin="0" end="2000" vehsPerHour="200" departSp2000d="max" departPos="base" departLane="best"/>
    <flow id="flow_sn_0" route="route_sn" begin="0" end="2000" vehsPerHour="100" departSp2000d="max" departPos="base" departLane="best"/>
    <flow id="flow_se_0" route="route_se" begin="0" end="2000" vehsPerHour="100" departSp2000d="max" departPos="base" departLane="best"/>

    <flow id="flow_en_0" route="route_en" begin="0" end="2000" vehsPerHour="300" departSp2000d="max" departPos="base" departLane="best"/>
    <flow id="flow_ew_0" route="route_ew" begin="0" end="2000" vehsPerHour="300" departSp2000d="max" departPos="base" departLane="best"/>
    <flow id="flow_es_0" route="route_es" begin="0" end="2000" vehsPerHour="600" departSp2000d="max" departPos="base" departLane="best"/>
    <flow id="flow_wn_0" route="route_wn" begin="0" end="2000" vehsPerHour="600" departSp2000d="max" departPos="base" departLane="best"/>
    <flow id="flow_we_0" route="route_we" begin="0" end="2000" vehsPerHour="300" departSp2000d="max" departPos="base" departLane="best"/>
    <flow id="flow_ws_0" route="route_ws" begin="0" end="2000" vehsPerHour="300" departSp2000d="max" departPos="base" departLane="best"/><flow id="flow_ns_1" route="route_ns" begin="2000" end="4000" vehsPerHour="200" departSp4000d="max" departPos="base" departLane="best"/>
    <flow id="flow_nw_1" route="route_nw" begin="2000" end="4000" vehsPerHour="200" departSp4000d="max" departPos="base" departLane="best"/>
    <flow id="flow_ne_1" route="route_ne" begin="2000" end="4000" vehsPerHour="400" departSp4000d="max" departPos="base" departLane="best"/>
    <flow id="flow_sw_1" route="route_sw" begin="2000" end="4000" vehsPerHour="400" departSp4000d="max" departPos="base" departLane="best"/>
    <flow id="flow_sn_1" route="route_sn" begin="2000" end="4000" vehsPerHour="200" departSp4000d="max" departPos="base" departLane="best"/>
    <flow id="flow_se_1" route="route_se" begin="2000" end="4000" vehsPerHour="200" departSp4000d="max" departPos="base" departLane="best"/>

    <flow id="flow_en_1" route="route_en" begin="2000" end="4000" vehsPerHour="200" departSp4000d="max" departPos="base" departLane="best"/>
    <flow id="flow_ew_1" route="route_ew" begin="2000" end="4000" vehsPerHour="200" departSp4000d="max" departPos="base" departLane="best"/>
    <flow id="flow_es_1" route="route_es" begin="2000" end="4000" vehsPerHour="400" departSp4000d="max" departPos="base" departLane="best"/>
    <flow id="flow_wn_1" route="route_wn" begin="2000" end="4000" vehsPerHour="400" departSp4000d="max" departPos="base" departLane="best"/>
    <flow id="flow_we_1" route="route_we" begin="2000" end="4000" vehsPerHour="200" departSp4000d="max" departPos="base" departLane="best"/>
    <flow id="flow_ws_1" route="route_ws" begin="2000" end="4000" vehsPerHour="200" departSp4000d="max" departPos="base" departLane="best"/><flow id="flow_ns_2" route="route_ns" begin="4000" end="6000" vehsPerHour="100" departSp6000d="max" departPos="base" departLane="best"/>
    <flow id="flow_nw_2" route="route_nw" begin="4000" end="6000" vehsPerHour="100" departSp6000d="max" departPos="base" departLane="best"/>
    <flow id="flow_ne_2" route="route_ne" begin="4000" end="6000" vehsPerHour="200" departSp6000d="max" departPos="base" departLane="best"/>
    <flow id="flow_sw_2" route="route_sw" begin="4000" end="6000" vehsPerHour="200" departSp6000d="max" departPos="base" departLane="best"/>
    <flow id="flow_sn_2" route="route_sn" begin="4000" end="6000" vehsPerHour="100" departSp6000d="max" departPos="base" departLane="best"/>
    <flow id="flow_se_2" route="route_se" begin="4000" end="6000" vehsPerHour="100" departSp6000d="max" departPos="base" departLane="best"/>

    <flow id="flow_en_2" route="route_en" begin="4000" end="6000" vehsPerHour="300" departSp6000d="max" departPos="base" departLane="best"/>
    <flow id="flow_ew_2" route="route_ew" begin="4000" end="6000" vehsPerHour="300" departSp6000d="max" departPos="base" departLane="best"/>
    <flow id="flow_es_2" route="route_es" begin="4000" end="6000" vehsPerHour="600" departSp6000d="max" departPos="base" departLane="best"/>
    <flow id="flow_wn_2" route="route_wn" begin="4000" end="6000" vehsPerHour="600" departSp6000d="max" departPos="base" departLane="best"/>
    <flow id="flow_we_2" route="route_we" begin="4000" end="6000" vehsPerHour="300" departSp6000d="max" departPos="base" departLane="best"/>
    <flow id="flow_ws_2" route="route_ws" begin="4000" end="6000" vehsPerHour="300" departSp6000d="max" departPos="base" departLane="best"/><flow id="flow_ns_3" route="route_ns" begin="6000" end="8000" vehsPerHour="200" departSp8000d="max" departPos="base" departLane="best"/>
    <flow id="flow_nw_3" route="route_nw" begin="6000" end="8000" vehsPerHour="200" departSp8000d="max" departPos="base" departLane="best"/>
    <flow id="flow_ne_3" route="route_ne" begin="6000" end="8000" vehsPerHour="400" departSp8000d="max" departPos="base" departLane="best"/>
    <flow id="flow_sw_3" route="route_sw" begin="6000" end="8000" vehsPerHour="400" departSp8000d="max" departPos="base" departLane="best"/>
    <flow id="flow_sn_3" route="route_sn" begin="6000" end="8000" vehsPerHour="200" departSp8000d="max" departPos="base" departLane="best"/>
    <flow id="flow_se_3" route="route_se" begin="6000" end="8000" vehsPerHour="200" departSp8000d="max" departPos="base" departLane="best"/>

    <flow id="flow_en_3" route="route_en" begin="6000" end="8000" vehsPerHour="200" departSp8000d="max" departPos="base" departLane="best"/>
    <flow id="flow_ew_3" route="route_ew" begin="6000" end="8000" vehsPerHour="200" departSp8000d="max" departPos="base" departLane="best"/>
    <flow id="flow_es_3" route="route_es" begin="6000" end="8000" vehsPerHour="400" departSp8000d="max" departPos="base" departLane="best"/>
    <flow id="flow_wn_3" route="route_wn" begin="6000" end="8000" vehsPerHour="400" departSp8000d="max" departPos="base" departLane="best"/>
    <flow id="flow_we_3" route="route_we" begin="6000" end="8000" vehsPerHour="200" departSp8000d="max" departPos="base" departLane="best"/>
    <flow id="flow_ws_3" route="route_ws" begin="6000" end="8000" vehsPerHour="200" departSp8000d="max" departPos="base" departLane="best"/><flow id="flow_ns_4" route="route_ns" begin="8000" end="10000" vehsPerHour="100" departSp10000d="max" departPos="base" departLane="best"/>
    <flow id="flow_nw_4" route="route_nw" begin="8000" end="10000" vehsPerHour="100" departSp10000d="max" departPos="base" departLane="best"/>
    <flow id="flow_ne_4" route="route_ne" begin="8000" end="10000" vehsPerHour="200" departSp10000d="max" departPos="base" departLane="best"/>
    <flow id="flow_sw_4" route="route_sw" begin="8000" end="10000" vehsPerHour="200" departSp10000d="max" departPos="base" departLane="best"/>
    <flow id="flow_sn_4" route="route_sn" begin="8000" end="10000" vehsPerHour="100" departSp10000d="max" departPos="base" departLane="best"/>
    <flow id="flow_se_4" route="route_se" begin="8000" end="10000" vehsPerHour="100" departSp10000d="max" departPos="base" departLane="best"/>

    <flow id="flow_en_4" route="route_en" begin="8000" end="10000" vehsPerHour="300" departSp10000d="max" departPos="base" departLane="best"/>
    <flow id="flow_ew_4" route="route_ew" begin="8000" end="10000" vehsPerHour="300" departSp10000d="max" departPos="base" departLane="best"/>
    <flow id="flow_es_4" route="route_es" begin="8000" end="10000" vehsPerHour="600" departSp10000d="max" departPos="base" departLane="best"/>
    <flow id="flow_wn_4" route="route_wn" begin="8000" end="10000" vehsPerHour="600" departSp10000d="max" departPos="base" departLane="best"/>
    <flow id="flow_we_4" route="route_we" begin="8000" end="10000" vehsPerHour="300" departSp10000d="max" departPos="base" departLane="best"/>
    <flow id="flow_ws_4" route="route_ws" begin="8000" end="10000" vehsPerHour="300" departSp10000d="max" departPos="base" departLane="best"/><flow id="flow_ns_5" route="route_ns" begin="10000" end="12000" vehsPerHour="200" departSp12000d="max" departPos="base" departLane="best"/>
    <flow id="flow_nw_5" route="route_nw" begin="10000" end="12000" vehsPerHour="200" departSp12000d="max" departPos="base" departLane="best"/>
    <flow id="flow_ne_5" route="route_ne" begin="10000" end="12000" vehsPerHour="400" departSp12000d="max" departPos="base" departLane="best"/>
    <flow id="flow_sw_5" route="route_sw" begin="10000" end="12000" vehsPerHour="400" departSp12000d="max" departPos="base" departLane="best"/>
    <flow id="flow_sn_5" route="route_sn" begin="10000" end="12000" vehsPerHour="200" departSp12000d="max" departPos="base" departLane="best"/>
    <flow id="flow_se_5" route="route_se" begin="10000" end="12000" vehsPerHour="200" departSp12000d="max" departPos="base" departLane="best"/>

    <flow id="flow_en_5" route="route_en" begin="10000" end="12000" vehsPerHour="200" departSp12000d="max" departPos="base" departLane="best"/>
    <flow id="flow_ew_5" route="route_ew" begin="10000" end="12000" vehsPerHour="200" departSp12000d="max" departPos="base" departLane="best"/>
    <flow id="flow_es_5" route="route_es" begin="10000" end="12000" vehsPerHour="400" departSp12000d="max" departPos="base" departLane="best"/>
    <flow id="flow_wn_5" route="route_wn" begin="10000" end="12000" vehsPerHour="400" departSp12000d="max" departPos="base" departLane="best"/>
    <flow id="flow_we_5" route="route_we" begin="10000" end="12000" vehsPerHour="200" departSp12000d="max" departPos="base" departLane="best"/>
    <flow id="flow_ws_5" route="route_ws" begin="10000" end="12000" vehsPerHour="200" departSp12000d="max" departPos="base" departLane="best"/><flow id="flow_ns_6" route="route_ns" begin="12000" end="14000" vehsPerHour="100" departSp14000d="max" departPos="base" departLane="best"/>
    <flow id="flow_nw_6" route="route_nw" begin="12000" end="14000" vehsPerHour="100" departSp14000d="max" departPos="base" departLane="best"/>
    <flow id="flow_ne_6" route="route_ne" begin="12000" end="14000" vehsPerHour="200" departSp14000d="max" departPos="base" departLane="best"/>
    <flow id="flow_sw_6" route="route_sw" begin="12000" end="14000" vehsPerHour="200" departSp14000d="max" departPos="base" departLane="best"/>
    <flow id="flow_sn_6" route="route_sn" begin="12000" end="14000" vehsPerHour="100" departSp14000d="max" departPos="base" departLane="best"/>
    <flow id="flow_se_6" route="route_se" begin="12000" end="14000" vehsPerHour="100" departSp14000d="max" departPos="base" departLane="best"/>

    <flow id="flow_en_6" route="route_en" begin="12000" end="14000" vehsPerHour="300" departSp14000d="max" departPos="base" departLane="best"/>
    <flow id="flow_ew_6" route="route_ew" begin="12000" end="14000" vehsPerHour="300" departSp14000d="max" departPos="base" departLane="best"/>
    <flow id="flow_es_6" route="route_es" begin="12000" end="14000" vehsPerHour="600" departSp14000d="max" departPos="base" departLane="best"/>
    <flow id="flow_wn_6" route="route_wn" begin="12000" end="14000" vehsPerHour="600" departSp14000d="max" departPos="base" departLane="best"/>
    <flow id="flow_we_6" route="route_we" begin="12000" end="14000" vehsPerHour="300" departSp14000d="max" departPos="base" departLane="best"/>
    <flow id="flow_ws_6" route="route_ws" begin="12000" end="14000" vehsPerHour="300" departSp14000d="max" departPos="base" departLane="best"/><flow id="flow_ns_7" route="route_ns" begin="14000" end="16000" vehsPerHour="200" departSp16000d="max" departPos="base" departLane="best"/>
    <flow id="flow_nw_7" route="route_nw" begin="14000" end="16000" vehsPerHour="200" departSp16000d="max" departPos="base" departLane="best"/>
    <flow id="flow_ne_7" route="route_ne" begin="14000" end="16000" vehsPerHour="400" departSp16000d="max" departPos="base" departLane="best"/>
    <flow id="flow_sw_7" route="route_sw" begin="14000" end="16000" vehsPerHour="400" departSp16000d="max" departPos="base" departLane="best"/>
    <flow id="flow_sn_7" route="route_sn" begin="14000" end="16000" vehsPerHour="200" departSp16000d="max" departPos="base" departLane="best"/>
    <flow id="flow_se_7" route="route_se" begin="14000" end="16000" vehsPerHour="200" departSp16000d="max" departPos="base" departLane="best"/>

    <flow id="flow_en_7" route="route_en" begin="14000" end="16000" vehsPerHour="200" departSp16000d="max" departPos="base" departLane="best"/>
    <flow id="flow_ew_7" route="route_ew" begin="14000" end="16000" vehsPerHour="200" departSp16000d="max" departPos="base" departLane="best"/>
    <flow id="flow_es_7" route="route_es" begin="14000" end="16000" vehsPerHour="400" departSp16000d="max" departPos="base" departLane="best"/>
    <flow id="flow_wn_7" route="route_wn" begin="14000" end="16000" vehsPerHour="400" departSp16000d="max" departPos="base" departLane="best"/>
    <flow id="flow_we_7" route="route_we" begin="14000" end="16000" vehsPerHour="200" departSp16000d="max" departPos="base" departLane="best"/>
    <flow id="flow_ws_7" route="route_ws" begin="14000" end="16000" vehsPerHour="200" departSp16000d="max" departPos="base" departLane="best"/><flow id="flow_ns_8" route="route_ns" begin="16000" end="18000" vehsPerHour="100" departSp18000d="max" departPos="base" departLane="best"/>
    <flow id="flow_nw_8" route="route_nw" begin="16000" end="18000" vehsPerHour="100" departSp18000d="max" departPos="base" departLane="best"/>
    <flow id="flow_ne_8" route="route_ne" begin="16000" end="18000" vehsPerHour="200" departSp18000d="max" departPos="base" departLane="best"/>
    <flow id="flow_sw_8" route="route_sw" begin="16000" end="18000" vehsPerHour="200" departSp18000d="max" departPos="base" departLane="best"/>
    <flow id="flow_sn_8" route="route_sn" begin="16000" end="18000" vehsPerHour="100" departSp18000d="max" departPos="base" departLane="best"/>
    <flow id="flow_se_8" route="route_se" begin="16000" end="18000" vehsPerHour="100" departSp18000d="max" departPos="base" departLane="best"/>

    <flow id="flow_en_8" route="route_en" begin="16000" end="18000" vehsPerHour="300" departSp18000d="max" departPos="base" departLane="best"/>
    <flow id="flow_ew_8" route="route_ew" begin="16000" end="18000" vehsPerHour="300" departSp18000d="max" departPos="base" departLane="best"/>
    <flow id="flow_es_8" route="route_es" begin="16000" end="18000" vehsPerHour="600" departSp18000d="max" departPos="base" departLane="best"/>
    <flow id="flow_wn_8" route="route_wn" begin="16000" end="18000" vehsPerHour="600" departSp18000d="max" departPos="base" departLane="best"/>
    <flow id="flow_we_8" route="route_we" begin="16000" end="18000" vehsPerHour="300" departSp18000d="max" departPos="base" departLane="best"/>
    <flow id="flow_ws_8" route="route_ws" begin="16000" end="18000" vehsPerHour="300" departSp18000d="max" departPos="base" departLane="best"/><flow id="flow_ns_9" route="route_ns" begin="18000" end="20000" vehsPerHour="200" departSp20000d="max" departPos="base" departLane="best"/>
    <flow id="flow_nw_9" route="route_nw" begin="18000" end="20000" vehsPerHour="200" departSp20000d="max" departPos="base" departLane="best"/>
    <flow id="flow_ne_9" route="route_ne" begin="18000" end="20000" vehsPerHour="400" departSp20000d="max" departPos="base" departLane="best"/>
    <flow id="flow_sw_9" route="route_sw" begin="18000" end="20000" vehsPerHour="400" departSp20000d="max" departPos="base" departLane="best"/>
    <flow id="flow_sn_9" route="route_sn" begin="18000" end="20000" vehsPerHour="200" departSp20000d="max" departPos="base" departLane="best"/>
    <flow id="flow_se_9" route="route_se" begin="18000" end="20000" vehsPerHour="200" departSp20000d="max" departPos="base" departLane="best"/>

    <flow id="flow_en_9" route="route_en" begin="18000" end="20000" vehsPerHour="200" departSp20000d="max" departPos="base" departLane="best"/>
    <flow id="flow_ew_9" route="route_ew" begin="18000" end="20000" vehsPerHour="200" departSp20000d="max" departPos="base" departLane="best"/>
    <flow id="flow_es_9" route="route_es" begin="18000" end="20000" vehsPerHour="400" departSp20000d="max" departPos="base" departLane="best"/>
    <flow id="flow_wn_9" route="route_wn" begin="18000" end="20000" vehsPerHour="400" departSp20000d="max" departPos="base" departLane="best"/>
    <flow id="flow_we_9" route="route_we" begin="18000" end="20000" vehsPerHour="200" departSp20000d="max" departPos="base" departLane="best"/>
    <flow id="flow_ws_9" route="route_ws" begin="18000" end="20000" vehsPerHour="200" departSp20000d="max" departPos="base" departLane="best"/><flow id="flow_ns_10" route="route_ns" begin="20000" end="22000" vehsPerHour="100" departSp22000d="max" departPos="base" departLane="best"/>
    <flow id="flow_nw_10" route="route_nw" begin="20000" end="22000" vehsPerHour="100" departSp22000d="max" departPos="base" departLane="best"/>
    <flow id="flow_ne_10" route="route_ne" begin="20000" end="22000" vehsPerHour="200" departSp22000d="max" departPos="base" departLane="best"/>
    <flow id="flow_sw_10" route="route_sw" begin="20000" end="22000" vehsPerHour="200" departSp22000d="max" departPos="base" departLane="best"/>
    <flow id="flow_sn_10" route="route_sn" begin="20000" end="22000" vehsPerHour="100" departSp22000d="max" departPos="base" departLane="best"/>
    <flow id="flow_se_10" route="route_se" begin="20000" end="22000" vehsPerHour="100" departSp22000d="max" departPos="base" departLane="best"/>

    <flow id="flow_en_10" route="route_en" begin="20000" end="22000" vehsPerHour="300" departSp22000d="max" departPos="base" departLane="best"/>
    <flow id="flow_ew_10" route="route_ew" begin="20000" end="22000" vehsPerHour="300" departSp22000d="max" departPos="base" departLane="best"/>
    <flow id="flow_es_10" route="route_es" begin="20000" end="22000" vehsPerHour="600" departSp22000d="max" departPos="base" departLane="best"/>
    <flow id="flow_wn_10" route="route_wn" begin="20000" end="22000" vehsPerHour="600" departSp22000d="max" departPos="base" departLane="best"/>
    <flow id="flow_we_10" route="route_we" begin="20000" end="22000" vehsPerHour="300" departSp22000d="max" departPos="base" departLane="best"/>
    <flow id="flow_ws_10" route="route_ws" begin="20000" end="22000" vehsPerHour="300" departSp22000d="max" departPos="base" departLane="best"/><flow id="flow_ns_11" route="route_ns" begin="22000" end="24000" vehsPerHour="200" departSp24000d="max" departPos="base" departLane="best"/>
    <flow id="flow_nw_11" route="route_nw" begin="22000" end="24000" vehsPerHour="200" departSp24000d="max" departPos="base" departLane="best"/>
    <flow id="flow_ne_11" route="route_ne" begin="22000" end="24000" vehsPerHour="400" departSp24000d="max" departPos="base" departLane="best"/>
    <flow id="flow_sw_11" route="route_sw" begin="22000" end="24000" vehsPerHour="400" departSp24000d="max" departPos="base" departLane="best"/>
    <flow id="flow_sn_11" route="route_sn" begin="22000" end="24000" vehsPerHour="200" departSp24000d="max" departPos="base" departLane="best"/>
    <flow id="flow_se_11" route="route_se" begin="22000" end="24000" vehsPerHour="200" departSp24000d="max" departPos="base" departLane="best"/>

    <flow id="flow_en_11" route="route_en" begin="22000" end="24000" vehsPerHour="200" departSp24000d="max" departPos="base" departLane="best"/>
    <flow id="flow_ew_11" route="route_ew" begin="22000" end="24000" vehsPerHour="200" departSp24000d="max" departPos="base" departLane="best"/>
    <flow id="flow_es_11" route="route_es" begin="22000" end="24000" vehsPerHour="400" departSp24000d="max" departPos="base" departLane="best"/>
    <flow id="flow_wn_11" route="route_wn" begin="22000" end="24000" vehsPerHour="400" departSp24000d="max" departPos="base" departLane="best"/>
    <flow id="flow_we_11" route="route_we" begin="22000" end="24000" vehsPerHour="200" departSp24000d="max" departPos="base" departLane="best"/>
    <flow id="flow_ws_11" route="route_ws" begin="22000" end="24000" vehsPerHour="200" departSp24000d="max" departPos="base" departLane="best"/><flow id="flow_ns_12" route="route_ns" begin="24000" end="26000" vehsPerHour="100" departSp26000d="max" departPos="base" departLane="best"/>
    <flow id="flow_nw_12" route="route_nw" begin="24000" end="26000" vehsPerHour="100" departSp26000d="max" departPos="base" departLane="best"/>
    <flow id="flow_ne_12" route="route_ne" begin="24000" end="26000" vehsPerHour="200" departSp26000d="max" departPos="base" departLane="best"/>
    <flow id="flow_sw_12" route="route_sw" begin="24000" end="26000" vehsPerHour="200" departSp26000d="max" departPos="base" departLane="best"/>
    <flow id="flow_sn_12" route="route_sn" begin="24000" end="26000" vehsPerHour="100" departSp26000d="max" departPos="base" departLane="best"/>
    <flow id="flow_se_12" route="route_se" begin="24000" end="26000" vehsPerHour="100" departSp26000d="max" departPos="base" departLane="best"/>

    <flow id="flow_en_12" route="route_en" begin="24000" end="26000" vehsPerHour="300" departSp26000d="max" departPos="base" departLane="best"/>
    <flow id="flow_ew_12" route="route_ew" begin="24000" end="26000" vehsPerHour="300" departSp26000d="max" departPos="base" departLane="best"/>
    <flow id="flow_es_12" route="route_es" begin="24000" end="26000" vehsPerHour="600" departSp26000d="max" departPos="base" departLane="best"/>
    <flow id="flow_wn_12" route="route_wn" begin="24000" end="26000" vehsPerHour="600" departSp26000d="max" departPos="base" departLane="best"/>
    <flow id="flow_we_12" route="route_we" begin="24000" end="26000" vehsPerHour="300" departSp26000d="max" departPos="base" departLane="best"/>
    <flow id="flow_ws_12" route="route_ws" begin="24000" end="26000" vehsPerHour="300" departSp26000d="max" departPos="base" departLane="best"/><flow id="flow_ns_13" route="route_ns" begin="26000" end="28000" vehsPerHour="200" departSp28000d="max" departPos="base" departLane="best"/>
    <flow id="flow_nw_13" route="route_nw" begin="26000" end="28000" vehsPerHour="200" departSp28000d="max" departPos="base" departLane="best"/>
    <flow id="flow_ne_13" route="route_ne" begin="26000" end="28000" vehsPerHour="400" departSp28000d="max" departPos="base" departLane="best"/>
    <flow id="flow_sw_13" route="route_sw" begin="26000" end="28000" vehsPerHour="400" departSp28000d="max" departPos="base" departLane="best"/>
    <flow id="flow_sn_13" route="route_sn" begin="26000" end="28000" vehsPerHour="200" departSp28000d="max" departPos="base" departLane="best"/>
    <flow id="flow_se_13" route="route_se" begin="26000" end="28000" vehsPerHour="200" departSp28000d="max" departPos="base" departLane="best"/>

    <flow id="flow_en_13" route="route_en" begin="26000" end="28000" vehsPerHour="200" departSp28000d="max" departPos="base" departLane="best"/>
    <flow id="flow_ew_13" route="route_ew" begin="26000" end="28000" vehsPerHour="200" departSp28000d="max" departPos="base" departLane="best"/>
    <flow id="flow_es_13" route="route_es" begin="26000" end="28000" vehsPerHour="400" departSp28000d="max" departPos="base" departLane="best"/>
    <flow id="flow_wn_13" route="route_wn" begin="26000" end="28000" vehsPerHour="400" departSp28000d="max" departPos="base" departLane="best"/>
    <flow id="flow_we_13" route="route_we" begin="26000" end="28000" vehsPerHour="200" departSp28000d="max" departPos="base" departLane="best"/>
    <flow id="flow_ws_13" route="route_ws" begin="26000" end="28000" vehsPerHour="200" departSp28000d="max" departPos="base" departLane="best"/><flow id="flow_ns_14" route="route_ns" begin="28000" end="30000" vehsPerHour="100" departSp30000d="max" departPos="base" departLane="best"/>
    <flow id="flow_nw_14" route="route_nw" begin="28000" end="30000" vehsPerHour="100" departSp30000d="max" departPos="base" departLane="best"/>
    <flow id="flow_ne_14" route="route_ne" begin="28000" end="30000" vehsPerHour="200" departSp30000d="max" departPos="base" departLane="best"/>
    <flow id="flow_sw_14" route="route_sw" begin="28000" end="30000" vehsPerHour="200" departSp30000d="max" departPos="base" departLane="best"/>
    <flow id="flow_sn_14" route="route_sn" begin="28000" end="30000" vehsPerHour="100" departSp30000d="max" departPos="base" departLane="best"/>
    <flow id="flow_se_14" route="route_se" begin="28000" end="30000" vehsPerHour="100" departSp30000d="max" departPos="base" departLane="best"/>

    <flow id="flow_en_14" route="route_en" begin="28000" end="30000" vehsPerHour="300" departSp30000d="max" departPos="base" departLane="best"/>
    <flow id="flow_ew_14" route="route_ew" begin="28000" end="30000" vehsPerHour="300" departSp30000d="max" departPos="base" departLane="best"/>
    <flow id="flow_es_14" route="route_es" begin="28000" end="30000" vehsPerHour="600" departSp30000d="max" departPos="base" departLane="best"/>
    <flow id="flow_wn_14" route="route_wn" begin="28000" end="30000" vehsPerHour="600" departSp30000d="max" departPos="base" departLane="best"/>
    <flow id="flow_we_14" route="route_we" begin="28000" end="30000" vehsPerHour="300" departSp30000d="max" departPos="base" departLane="best"/>
    <flow id="flow_ws_14" route="route_ws" begin="28000" end="30000" vehsPerHour="300" departSp30000d="max" departPos="base" departLane="best"/><flow id="flow_ns_15" route="route_ns" begin="30000" end="32000" vehsPerHour="200" departSp32000d="max" departPos="base" departLane="best"/>
    <flow id="flow_nw_15" route="route_nw" begin="30000" end="32000" vehsPerHour="200" departSp32000d="max" departPos="base" departLane="best"/>
    <flow id="flow_ne_15" route="route_ne" begin="30000" end="32000" vehsPerHour="400" departSp32000d="max" departPos="base" departLane="best"/>
    <flow id="flow_sw_15" route="route_sw" begin="30000" end="32000" vehsPerHour="400" departSp32000d="max" departPos="base" departLane="best"/>
    <flow id="flow_sn_15" route="route_sn" begin="30000" end="32000" vehsPerHour="200" departSp32000d="max" departPos="base" departLane="best"/>
    <flow id="flow_se_15" route="route_se" begin="30000" end="32000" vehsPerHour="200" departSp32000d="max" departPos="base" departLane="best"/>

    <flow id="flow_en_15" route="route_en" begin="30000" end="32000" vehsPerHour="200" departSp32000d="max" departPos="base" departLane="best"/>
    <flow id="flow_ew_15" route="route_ew" begin="30000" end="32000" vehsPerHour="200" departSp32000d="max" departPos="base" departLane="best"/>
    <flow id="flow_es_15" route="route_es" begin="30000" end="32000" vehsPerHour="400" departSp32000d="max" departPos="base" departLane="best"/>
    <flow id="flow_wn_15" route="route_wn" begin="30000" end="32000" vehsPerHour="400" departSp32000d="max" departPos="base" departLane="best"/>
    <flow id="flow_we_15" route="route_we" begin="30000" end="32000" vehsPerHour="200" departSp32000d="max" departPos="base" departLane="best"/>
    <flow id="flow_ws_15" route="route_ws" begin="30000" end="32000" vehsPerHour="200" departSp32000d="max" departPos="base" departLane="best"/><flow id="flow_ns_16" route="route_ns" begin="32000" end="34000" vehsPerHour="100" departSp34000d="max" departPos="base" departLane="best"/>
    <flow id="flow_nw_16" route="route_nw" begin="32000" end="34000" vehsPerHour="100" departSp34000d="max" departPos="base" departLane="best"/>
    <flow id="flow_ne_16" route="route_ne" begin="32000" end="34000" vehsPerHour="200" departSp34000d="max" departPos="base" departLane="best"/>
    <flow id="flow_sw_16" route="route_sw" begin="32000" end="34000" vehsPerHour="200" departSp34000d="max" departPos="base" departLane="best"/>
    <flow id="flow_sn_16" route="route_sn" begin="32000" end="34000" vehsPerHour="100" departSp34000d="max" departPos="base" departLane="best"/>
    <flow id="flow_se_16" route="route_se" begin="32000" end="34000" vehsPerHour="100" departSp34000d="max" departPos="base" departLane="best"/>

    <flow id="flow_en_16" route="route_en" begin="32000" end="34000" vehsPerHour="300" departSp34000d="max" departPos="base" departLane="best"/>
    <flow id="flow_ew_16" route="route_ew" begin="32000" end="34000" vehsPerHour="300" departSp34000d="max" departPos="base" departLane="best"/>
    <flow id="flow_es_16" route="route_es" begin="32000" end="34000" vehsPerHour="600" departSp34000d="max" departPos="base" departLane="best"/>
    <flow id="flow_wn_16" route="route_wn" begin="32000" end="34000" vehsPerHour="600" departSp34000d="max" departPos="base" departLane="best"/>
    <flow id="flow_we_16" route="route_we" begin="32000" end="34000" vehsPerHour="300" departSp34000d="max" departPos="base" departLane="best"/>
    <flow id="flow_ws_16" route="route_ws" begin="32000" end="34000" vehsPerHour="300" departSp34000d="max" departPos="base" departLane="best"/><flow id="flow_ns_17" route="route_ns" begin="34000" end="36000" vehsPerHour="200" departSp36000d="max" departPos="base" departLane="best"/>