<?xml version="1.0" encoding="UTF-8"?>

<!-- generated on 01/04/19 15:23:19 by SUMO duarouter Version 0.32.0
<?xml version="1.0" encoding="UTF-8"?>

<configuration xmlns:xsi="http://www.w3.org/2001/XMLSchema-instance" xsi:noNamespaceSchemaLocation="http://sumo.dlr.de/xsd/duarouterConfiguration.xsd">

    <input>
        <net-file value="fuzzy_4.net.xml"/>
        <route-files value="my_s.rou.xml"/>
    </input>

    <output>
        <output-file value="fuzzy_r.rou.xml"/>
        <alternatives-output value="fuzzy_r.rou.alt.xml"/>
    </output>

    <processing>
        <randomize-flows value="true"/>
    </processing>

</configuration>
-->

<routes xmlns:xsi="http://www.w3.org/2001/XMLSchema-instance" xsi:noNamespaceSchemaLocation="http://sumo.dlr.de/xsd/routes_file.xsd">
    <vehicle id="4.0" depart="7.91" departLane="best" departSpeed="max" color="red">
        <route edges="7 6"/>
    </vehicle>
    <vehicle id="0.0" depart="9.74" departLane="best" departSpeed="max" color="red">
        <route edges="3 2"/>
    </vehicle>
    <vehicle id="5.0" depart="18.39" departLane="best" departSpeed="max" color="magenta">
        <route edges="1 6"/>
    </vehicle>
    <vehicle id="3.0" depart="55.65" departLane="best" departSpeed="max" color="magenta">
        <route edges="7 6"/>
    </vehicle>
    <vehicle id="0.1" depart="75.18" departLane="best" departSpeed="max" color="red">
        <route edges="3 2"/>
    </vehicle>
    <vehicle id="4.1" depart="99.64" departLane="best" departSpeed="max" color="red">
        <route edges="7 6"/>
    </vehicle>
    <vehicle id="4.2" depart="115.58" departLane="best" departSpeed="max" color="red">
        <route edges="7 6"/>
    </vehicle>
    <vehicle id="2.0" depart="130.01" departLane="best" departSpeed="max" color="red">
        <route edges="7 8"/>
    </vehicle>
    <vehicle id="0.2" depart="140.59" departLane="best" departSpeed="max" color="red">
        <route edges="3 2"/>
    </vehicle>
    <vehicle id="7.0" depart="203.31" departLane="best" departSpeed="max" color="magenta">
        <route edges="5 8"/>
    </vehicle>
    <vehicle id="6.0" depart="210.17" departLane="best" departSpeed="max" color="red">
        <route edges="5 8"/>
    </vehicle>
    <vehicle id="4.3" depart="222.91" departLane="best" departSpeed="max" color="red">
        <route edges="7 6"/>
    </vehicle>
    <vehicle id="1.0" depart="230.40" departLane="best" departSpeed="max" color="magenta">
        <route edges="7 4"/>
    </vehicle>
    <vehicle id="4.4" depart="231.09" departLane="best" departSpeed="max" color="red">
        <route edges="7 6"/>
    </vehicle>
    <vehicle id="4.5" depart="235.24" departLane="best" departSpeed="max" color="red">
        <route edges="7 6"/>
    </vehicle>
    <vehicle id="4.6" depart="244.47" departLane="best" departSpeed="max" color="red">
        <route edges="7 6"/>
    </vehicle>
    <vehicle id="0.3" depart="274.84" departLane="best" departSpeed="max" color="red">
        <route edges="3 2"/>
    </vehicle>
    <vehicle id="3.1" depart="277.54" departLane="best" departSpeed="max" color="magenta">
        <route edges="7 6"/>
    </vehicle>
    <vehicle id="4.7" depart="295.59" departLane="best" departSpeed="max" color="red">
        <route edges="7 6"/>
    </vehicle>
    <vehicle id="0.4" depart="297.49" departLane="best" departSpeed="max" color="red">
        <route edges="3 2"/>
    </vehicle>
    <vehicle id="14.0" depart="310.31" departLane="best" departSpeed="max" color="red">
        <route edges="5 8"/>
    </vehicle>
    <vehicle id="14.1" depart="312.79" departLane="best" departSpeed="max" color="red">
        <route edges="5 8"/>
    </vehicle>
    <vehicle id="14.2" depart="318.01" departLane="best" departSpeed="max" color="red">
        <route edges="5 8"/>
    </vehicle>
    <vehicle id="11.0" depart="325.67" departLane="best" departSpeed="max" color="magenta">
        <route edges="7 6"/>
    </vehicle>
    <vehicle id="11.1" depart="327.36" departLane="best" departSpeed="max" color="magenta">
        <route edges="7 6"/>
    </vehicle>
    <vehicle id="11.2" depart="333.64" departLane="best" departSpeed="max" color="magenta">
        <route edges="7 6"/>
    </vehicle>
    <vehicle id="12.0" depart="335.86" departLane="best" departSpeed="max" color="red">
        <route edges="7 6"/>
    </vehicle>
    <vehicle id="8.0" depart="337.69" departLane="best" departSpeed="max" color="red">
        <route edges="3 8"/>
    </vehicle>
    <vehicle id="8.1" depart="352.36" departLane="best" departSpeed="max" color="red">
        <route edges="3 8"/>
    </vehicle>
    <vehicle id="8.2" depart="368.48" departLane="best" departSpeed="max" color="red">
        <route edges="3 8"/>
    </vehicle>
    <vehicle id="11.3" depart="369.49" departLane="best" departSpeed="max" color="magenta">
        <route edges="7 6"/>
    </vehicle>
    <vehicle id="12.1" depart="372.68" departLane="best" departSpeed="max" color="red">
        <route edges="7 6"/>
    </vehicle>
    <vehicle id="11.4" depart="377.86" departLane="best" departSpeed="max" color="magenta">
        <route edges="7 6"/>
    </vehicle>
    <vehicle id="12.2" depart="378.56" departLane="best" departSpeed="max" color="red">
        <route edges="7 6"/>
    </vehicle>
    <vehicle id="12.3" depart="398.13" departLane="best" departSpeed="max" color="red">
        <route edges="7 6"/>
    </vehicle>
    <vehicle id="12.4" depart="404.50" departLane="best" departSpeed="max" color="red">
        <route edges="7 6"/>
    </vehicle>
    <vehicle id="9.0" depart="442.38" departLane="best" departSpeed="max" color="magenta">
        <route edges="7 4"/>
    </vehicle>
    <vehicle id="11.5" depart="442.39" departLane="best" departSpeed="max" color="magenta">
        <route edges="7 6"/>
    </vehicle>
    <vehicle id="8.3" depart="447.90" departLane="best" departSpeed="max" color="red">
        <route edges="3 8"/>
    </vehicle>
    <vehicle id="9.1" depart="450.13" departLane="best" departSpeed="max" color="magenta">
        <route edges="7 4"/>
    </vehicle>
    <vehicle id="9.2" depart="451.18" departLane="best" departSpeed="max" color="magenta">
        <route edges="7 4"/>
    </vehicle>
    <vehicle id="8.4" depart="462.06" departLane="best" departSpeed="max" color="red">
        <route edges="3 8"/>
    </vehicle>
    <vehicle id="11.6" depart="463.02" departLane="best" departSpeed="max" color="magenta">
        <route edges="7 6"/>
    </vehicle>
    <vehicle id="13.0" depart="468.77" departLane="best" departSpeed="max" color="magenta">
        <route edges="5 4"/>
    </vehicle>
    <vehicle id="12.5" depart="486.56" departLane="best" departSpeed="max" color="red">
        <route edges="7 6"/>
    </vehicle>
    <vehicle id="10.0" depart="500.66" departLane="best" departSpeed="max" color="red">
        <route edges="7 2"/>
    </vehicle>
    <vehicle id="9.3" depart="535.12" departLane="best" departSpeed="max" color="magenta">
        <route edges="7 4"/>
    </vehicle>
    <vehicle id="15.0" depart="538.38" departLane="best" departSpeed="max" color="magenta">
        <route edges="5 8"/>
    </vehicle>
    <vehicle id="8.5" depart="539.99" departLane="best" departSpeed="max" color="red">
        <route edges="3 8"/>
    </vehicle>
    <vehicle id="15.1" depart="560.98" departLane="best" departSpeed="max" color="magenta">
        <route edges="5 8"/>
    </vehicle>
    <vehicle id="15.2" depart="569.35" departLane="best" departSpeed="max" color="magenta">
        <route edges="5 8"/>
    </vehicle>
    <vehicle id="11.7" depart="575.62" departLane="best" departSpeed="max" color="magenta">
        <route edges="7 6"/>
    </vehicle>
    <vehicle id="8.6" depart="580.18" departLane="best" departSpeed="max" color="red">
        <route edges="3 8"/>
    </vehicle>
    <vehicle id="17.0" depart="618.13" departLane="best" departSpeed="max" color="magenta">
        <route edges="3 2"/>
    </vehicle>
    <vehicle id="19.0" depart="619.60" departLane="best" departSpeed="max" color="magenta">
        <route edges="7 6"/>
    </vehicle>
    <vehicle id="16.0" depart="669.48" departLane="best" departSpeed="max" color="red">
        <route edges="3 8"/>
    </vehicle>
    <vehicle id="20.0" depart="672.60" departLane="best" departSpeed="max" color="red">
        <route edges="7 6"/>
    </vehicle>
    <vehicle id="20.1" depart="681.70" departLane="best" departSpeed="max" color="red">
        <route edges="7 6"/>
    </vehicle>
    <vehicle id="20.2" depart="683.60" departLane="best" departSpeed="max" color="red">
        <route edges="7 6"/>
    </vehicle>
    <vehicle id="22.0" depart="725.46" departLane="best" departSpeed="max" color="red">
        <route edges="5 8"/>
    </vehicle>
    <vehicle id="20.3" depart="728.73" departLane="best" departSpeed="max" color="red">
        <route edges="7 6"/>
    </vehicle>
    <vehicle id="23.0" depart="758.69" departLane="best" departSpeed="max" color="magenta">
        <route edges="5 8"/>
    </vehicle>
    <vehicle id="23.1" depart="767.24" departLane="best" departSpeed="max" color="magenta">
        <route edges="5 8"/>
    </vehicle>
    <vehicle id="21.0" depart="771.82" departLane="best" departSpeed="max" color="magenta">
        <route edges="1 6"/>
    </vehicle>
    <vehicle id="22.1" depart="779.74" departLane="best" departSpeed="max" color="red">
        <route edges="5 8"/>
    </vehicle>
    <vehicle id="16.1" depart="779.79" departLane="best" departSpeed="max" color="red">
        <route edges="3 8"/>
    </vehicle>
    <vehicle id="20.4" depart="782.59" departLane="best" departSpeed="max" color="red">
        <route edges="7 6"/>
    </vehicle>
    <vehicle id="20.5" depart="790.34" departLane="best" departSpeed="max" color="red">
        <route edges="7 6"/>
    </vehicle>
    <vehicle id="18.0" depart="816.11" departLane="best" departSpeed="max" color="red">
        <route edges="7 4"/>
    </vehicle>
    <vehicle id="20.6" depart="817.73" departLane="best" departSpeed="max" color="red">
        <route edges="7 6"/>
    </vehicle>
    <vehicle id="20.7" depart="821.44" departLane="best" departSpeed="max" color="red">
        <route edges="7 6"/>
    </vehicle>
    <vehicle id="19.1" depart="833.84" departLane="best" departSpeed="max" color="magenta">
        <route edges="7 6"/>
    </vehicle>
    <vehicle id="20.8" depart="835.96" departLane="best" departSpeed="max" color="red">
        <route edges="7 6"/>
    </vehicle>
    <vehicle id="20.9" depart="838.75" departLane="best" departSpeed="max" color="red">
        <route edges="7 6"/>
    </vehicle>
    <vehicle id="20.10" depart="853.63" departLane="best" departSpeed="max" color="red">
        <route edges="7 6"/>
    </vehicle>
    <vehicle id="20.11" depart="897.47" departLane="best" departSpeed="max" color="red">
        <route edges="7 6"/>
    </vehicle>
    <vehicle id="28.0" depart="903.52" departLane="best" departSpeed="max" color="red">
        <route edges="7 6"/>
    </vehicle>
    <vehicle id="27.0" depart="907.38" departLane="best" departSpeed="max" color="magenta">
        <route edges="7 6"/>
    </vehicle>
    <vehicle id="28.1" depart="931.30" departLane="best" departSpeed="max" color="red">
        <route edges="7 6"/>
    </vehicle>
    <vehicle id="24.0" depart="932.80" departLane="best" departSpeed="max" color="red">
        <route edges="3 8"/>
    </vehicle>
    <vehicle id="25.0" depart="941.55" departLane="best" departSpeed="max" color="magenta">
        <route edges="7 4"/>
    </vehicle>
    <vehicle id="29.0" depart="957.85" departLane="best" departSpeed="max" color="magenta">
        <route edges="5 4"/>
    </vehicle>
    <vehicle id="30.0" depart="963.70" departLane="best" departSpeed="max" color="red">
        <route edges="5 2"/>
    </vehicle>
    <vehicle id="30.1" depart="973.66" departLane="best" departSpeed="max" color="red">
        <route edges="5 2"/>
    </vehicle>
    <vehicle id="27.1" depart="1001.67" departLane="best" departSpeed="max" color="magenta">
        <route edges="7 6"/>
    </vehicle>
    <vehicle id="27.2" depart="1007.83" departLane="best" departSpeed="max" color="magenta">
        <route edges="7 6"/>
    </vehicle>
    <vehicle id="24.1" depart="1022.15" departLane="best" departSpeed="max" color="red">
        <route edges="3 8"/>
    </vehicle>
    <vehicle id="25.1" depart="1051.70" departLane="best" departSpeed="max" color="magenta">
        <route edges="7 4"/>
    </vehicle>
    <vehicle id="29.1" depart="1061.49" departLane="best" departSpeed="max" color="magenta">
        <route edges="5 4"/>
    </vehicle>
    <vehicle id="30.2" depart="1086.02" departLane="best" departSpeed="max" color="red">
        <route edges="5 2"/>
    </vehicle>
    <vehicle id="27.3" depart="1088.13" departLane="best" departSpeed="max" color="magenta">
        <route edges="7 6"/>
    </vehicle>
    <vehicle id="27.4" depart="1089.95" departLane="best" departSpeed="max" color="magenta">
        <route edges="7 6"/>
    </vehicle>
    <vehicle id="31.0" depart="1094.48" departLane="best" departSpeed="max" color="magenta">
        <route edges="5 8"/>
    </vehicle>
    <vehicle id="28.2" depart="1113.14" departLane="best" departSpeed="max" color="red">
        <route edges="7 6"/>
    </vehicle>
    <vehicle id="26.0" depart="1134.93" departLane="best" departSpeed="max" color="red">
        <route edges="7 2"/>
    </vehicle>
    <vehicle id="28.3" depart="1149.21" departLane="best" departSpeed="max" color="red">
        <route edges="7 6"/>
    </vehicle>
    <vehicle id="25.2" depart="1162.10" departLane="best" departSpeed="max" color="magenta">
        <route edges="7 4"/>
    </vehicle>
    <vehicle id="25.3" depart="1166.22" departLane="best" departSpeed="max" color="magenta">
        <route edges="7 4"/>
    </vehicle>
    <vehicle id="25.4" depart="1167.55" departLane="best" departSpeed="max" color="magenta">
        <route edges="7 4"/>
    </vehicle>
    <vehicle id="24.2" depart="1175.25" departLane="best" departSpeed="max" color="red">
        <route edges="3 8"/>
    </vehicle>
    <vehicle id="39.0" depart="1200.79" departLane="best" departSpeed="max" color="magenta">
        <route edges="1 4"/>
    </vehicle>
    <vehicle id="37.0" depart="1202.59" departLane="best" departSpeed="max" color="magenta">
        <route edges="7 6"/>
    </vehicle>
    <vehicle id="39.1" depart="1206.36" departLane="best" departSpeed="max" color="magenta">
        <route edges="1 4"/>
    </vehicle>
    <vehicle id="38.0" depart="1227.48" departLane="best" departSpeed="max" color="red">
        <route edges="7 6"/>
    </vehicle>
    <vehicle id="37.1" depart="1263.58" departLane="best" departSpeed="max" color="magenta">
        <route edges="7 6"/>
    </vehicle>
    <vehicle id="38.1" depart="1263.62" departLane="best" departSpeed="max" color="red">
        <route edges="7 6"/>
    </vehicle>
    <vehicle id="35.0" depart="1282.19" departLane="best" departSpeed="max" color="magenta">
        <route edges="3 6"/>
    </vehicle>
    <vehicle id="35.1" depart="1296.69" departLane="best" departSpeed="max" color="magenta">
        <route edges="3 6"/>
    </vehicle>
    <vehicle id="33.0" depart="1308.52" departLane="best" departSpeed="max" color="magenta">
        <route edges="3 8"/>
    </vehicle>
    <vehicle id="36.0" depart="1311.34" departLane="best" departSpeed="max" color="red">
        <route edges="7 4"/>
    </vehicle>
    <vehicle id="37.2" depart="1321.78" departLane="best" departSpeed="max" color="magenta">
        <route edges="7 6"/>
    </vehicle>
    <vehicle id="38.2" depart="1336.13" departLane="best" departSpeed="max" color="red">
        <route edges="7 6"/>
    </vehicle>
    <vehicle id="37.3" depart="1355.65" departLane="best" departSpeed="max" color="magenta">
        <route edges="7 6"/>
    </vehicle>
    <vehicle id="39.2" depart="1369.47" departLane="best" departSpeed="max" color="magenta">
        <route edges="1 4"/>
    </vehicle>
    <vehicle id="36.1" depart="1373.70" departLane="best" departSpeed="max" color="red">
        <route edges="7 4"/>
    </vehicle>
    <vehicle id="38.3" depart="1376.20" departLane="best" departSpeed="max" color="red">
        <route edges="7 6"/>
    </vehicle>
    <vehicle id="40.0" depart="1390.33" departLane="best" departSpeed="max" color="magenta">
        <route edges="1 2"/>
    </vehicle>
    <vehicle id="36.2" depart="1401.67" departLane="best" departSpeed="max" color="red">
        <route edges="7 4"/>
    </vehicle>
    <vehicle id="38.4" depart="1407.72" departLane="best" departSpeed="max" color="red">
        <route edges="7 6"/>
    </vehicle>
    <vehicle id="35.2" depart="1433.82" departLane="best" departSpeed="max" color="magenta">
        <route edges="3 6"/>
    </vehicle>
    <vehicle id="39.3" depart="1443.98" departLane="best" departSpeed="max" color="magenta">
        <route edges="1 4"/>
    </vehicle>
    <vehicle id="37.4" depart="1458.69" departLane="best" departSpeed="max" color="magenta">
        <route edges="7 6"/>
    </vehicle>
    <vehicle id="34.0" depart="1466.60" departLane="best" departSpeed="max" color="red">
        <route edges="3 2"/>
    </vehicle>
    <vehicle id="32.0" depart="1479.36" departLane="best" departSpeed="max" color="red">
        <route edges="3 8"/>
    </vehicle>
    <vehicle id="44.0" depart="1500.56" departLane="best" departSpeed="max" color="magenta">
        <route edges="7 2"/>
    </vehicle>
    <vehicle id="44.1" depart="1513.56" departLane="best" departSpeed="max" color="magenta">
        <route edges="7 2"/>
    </vehicle>
    <vehicle id="45.0" depart="1518.68" departLane="best" departSpeed="max" color="red">
        <route edges="7 6"/>
    </vehicle>
    <vehicle id="45.1" depart="1539.05" departLane="best" departSpeed="max" color="red">
        <route edges="7 6"/>
    </vehicle>
    <vehicle id="41.0" depart="1540.24" departLane="best" departSpeed="max" color="red">
        <route edges="3 8"/>
    </vehicle>
    <vehicle id="47.0" depart="1542.16" departLane="best" departSpeed="max" color="red">
        <route edges="1 4"/>
    </vehicle>
    <vehicle id="41.1" depart="1576.82" departLane="best" departSpeed="max" color="red">
        <route edges="3 8"/>
    </vehicle>
    <vehicle id="42.0" depart="1580.26" departLane="best" departSpeed="max" color="magenta">
        <route edges="3 8"/>
    </vehicle>
    <vehicle id="47.1" depart="1593.28" departLane="best" departSpeed="max" color="red">
        <route edges="1 4"/>
    </vehicle>
    <vehicle id="48.0" depart="1596.01" departLane="best" departSpeed="max" color="magenta">
        <route edges="5 8"/>
    </vehicle>
    <vehicle id="46.0" depart="1606.81" departLane="best" departSpeed="max" color="magenta">
        <route edges="7 6"/>
    </vehicle>
    <vehicle id="44.2" depart="1627.99" departLane="best" departSpeed="max" color="magenta">
        <route edges="7 2"/>
    </vehicle>
    <vehicle id="45.2" depart="1642.95" departLane="best" departSpeed="max" color="red">
        <route edges="7 6"/>
    </vehicle>
    <vehicle id="46.1" depart="1656.93" departLane="best" departSpeed="max" color="magenta">
        <route edges="7 6"/>
    </vehicle>
    <vehicle id="43.0" depart="1677.73" departLane="best" departSpeed="max" color="red">
        <route edges="7 4"/>
    </vehicle>
    <vehicle id="47.2" depart="1680.55" departLane="best" departSpeed="max" color="red">
        <route edges="1 4"/>
    </vehicle>
    <vehicle id="44.3" depart="1681.72" departLane="best" departSpeed="max" color="magenta">
        <route edges="7 2"/>
    </vehicle>
    <vehicle id="45.3" depart="1686.01" departLane="best" departSpeed="max" color="red">
        <route edges="7 6"/>
    </vehicle>
    <vehicle id="48.1" depart="1689.35" departLane="best" departSpeed="max" color="magenta">
        <route edges="5 8"/>
    </vehicle>
    <vehicle id="44.4" depart="1707.55" departLane="best" departSpeed="max" color="magenta">
        <route edges="7 2"/>
    </vehicle>
    <vehicle id="43.1" depart="1712.57" departLane="best" departSpeed="max" color="red">
        <route edges="7 4"/>
    </vehicle>
    <vehicle id="44.5" depart="1732.18" departLane="best" departSpeed="max" color="magenta">
        <route edges="7 2"/>
    </vehicle>
    <vehicle id="46.2" depart="1735.89" departLane="best" departSpeed="max" color="magenta">
        <route edges="7 6"/>
    </vehicle>
    <vehicle id="44.6" depart="1738.94" departLane="best" departSpeed="max" color="magenta">
        <route edges="7 2"/>
    </vehicle>
    <vehicle id="46.3" depart="1748.12" departLane="best" departSpeed="max" color="magenta">
        <route edges="7 6"/>
    </vehicle>
    <vehicle id="46.4" depart="1771.96" departLane="best" departSpeed="max" color="magenta">
        <route edges="7 6"/>
    </vehicle>
    <vehicle id="48.2" depart="1787.85" departLane="best" departSpeed="max" color="magenta">
        <route edges="5 8"/>
    </vehicle>
    <vehicle id="46.5" depart="1789.55" departLane="best" departSpeed="max" color="magenta">
        <route edges="7 6"/>
    </vehicle>
    <vehicle id="49.0" depart="1803.84" departLane="best" departSpeed="max" color="red">
        <route edges="3 8"/>
    </vehicle>
    <vehicle id="51.0" depart="1816.72" departLane="best" departSpeed="max" color="red">
        <route edges="1 4"/>
    </vehicle>
    <vehicle id="49.1" depart="1830.86" departLane="best" departSpeed="max" color="red">
        <route edges="3 8"/>
    </vehicle>
    <vehicle id="52.0" depart="1839.99" departLane="best" departSpeed="max" color="magenta">
        <route edges="5 8"/>
    </vehicle>
    <vehicle id="49.2" depart="1867.68" departLane="best" departSpeed="max" color="red">
        <route edges="3 8"/>
    </vehicle>
    <vehicle id="53.0" depart="1900.63" departLane="best" departSpeed="max" color="red">
        <route edges="5 8"/>
    </vehicle>
    <vehicle id="53.1" depart="1900.72" departLane="best" departSpeed="max" color="red">
        <route edges="5 8"/>
    </vehicle>
    <vehicle id="49.3" depart="1945.27" departLane="best" departSpeed="max" color="red">
        <route edges="3 8"/>
    </vehicle>
    <vehicle id="53.2" depart="1964.19" departLane="best" departSpeed="max" color="red">
        <route edges="5 8"/>
    </vehicle>
    <vehicle id="53.3" depart="1969.75" departLane="best" departSpeed="max" color="red">
        <route edges="5 8"/>
    </vehicle>
    <vehicle id="50.0" depart="1999.05" departLane="best" departSpeed="max" color="magenta">
        <route edges="7 6"/>
    </vehicle>
    <vehicle id="50.1" depart="2009.51" departLane="best" departSpeed="max" color="magenta">
        <route edges="7 6"/>
    </vehicle>
    <vehicle id="52.1" depart="2011.30" departLane="best" departSpeed="max" color="magenta">
        <route edges="5 8"/>
    </vehicle>
    <vehicle id="53.4" depart="2020.63" departLane="best" departSpeed="max" color="red">
        <route edges="5 8"/>
    </vehicle>
    <vehicle id="51.1" depart="2030.32" departLane="best" departSpeed="max" color="red">
        <route edges="1 4"/>
    </vehicle>
    <vehicle id="49.4" depart="2041.11" departLane="best" departSpeed="max" color="red">
        <route edges="3 8"/>
    </vehicle>
    <vehicle id="49.5" depart="2042.38" departLane="best" departSpeed="max" color="red">
        <route edges="3 8"/>
    </vehicle>
    <vehicle id="52.2" depart="2063.89" departLane="best" departSpeed="max" color="magenta">
        <route edges="5 8"/>
    </vehicle>
    <vehicle id="53.5" depart="2076.26" departLane="best" departSpeed="max" color="red">
        <route edges="5 8"/>
    </vehicle>
    <vehicle id="53.6" depart="2092.12" departLane="best" departSpeed="max" color="red">
        <route edges="5 8"/>
    </vehicle>
    <vehicle id="58.0" depart="2138.04" departLane="best" departSpeed="max" color="red">
        <route edges="1 4"/>
    </vehicle>
    <vehicle id="56.0" depart="2147.01" departLane="best" departSpeed="max" color="red">
        <route edges="7 4"/>
    </vehicle>
    <vehicle id="57.0" depart="2154.34" departLane="best" departSpeed="max" color="magenta">
        <route edges="7 6"/>
    </vehicle>
    <vehicle id="54.0" depart="2178.74" departLane="best" departSpeed="max" color="red">
        <route edges="3 8"/>
    </vehicle>
    <vehicle id="60.0" depart="2189.60" departLane="best" departSpeed="max" color="red">
        <route edges="5 8"/>
    </vehicle>
    <vehicle id="55.0" depart="2234.92" departLane="best" departSpeed="max" color="magenta">
        <route edges="7 4"/>
    </vehicle>
    <vehicle id="60.1" depart="2273.47" departLane="best" departSpeed="max" color="red">
        <route edges="5 8"/>
    </vehicle>
    <vehicle id="59.0" depart="2274.43" departLane="best" departSpeed="max" color="magenta">
        <route edges="5 8"/>
    </vehicle>
    <vehicle id="54.1" depart="2287.48" departLane="best" departSpeed="max" color="red">
        <route edges="3 8"/>
    </vehicle>
    <vehicle id="55.1" depart="2318.29" departLane="best" departSpeed="max" color="magenta">
        <route edges="7 4"/>
    </vehicle>
    <vehicle id="56.1" depart="2319.63" departLane="best" departSpeed="max" color="red">
        <route edges="7 4"/>
    </vehicle>
    <vehicle id="59.1" depart="2390.01" departLane="best" departSpeed="max" color="magenta">
        <route edges="5 8"/>
    </vehicle>
    <vehicle id="68.0" depart="2417.50" departLane="best" departSpeed="max" color="magenta">
        <route edges="5 8"/>
    </vehicle>
    <vehicle id="62.0" depart="2426.67" departLane="best" departSpeed="max" color="magenta">
        <route edges="7 4"/>
    </vehicle>
    <vehicle id="66.0" depart="2434.69" departLane="best" departSpeed="max" color="magenta">
        <route edges="7 6"/>
    </vehicle>
    <vehicle id="63.0" depart="2457.27" departLane="best" departSpeed="max" color="red">
        <route edges="7 8"/>
    </vehicle>
    <vehicle id="65.0" depart="2459.09" departLane="best" departSpeed="max" color="red">
        <route edges="7 6"/>
    </vehicle>
    <vehicle id="65.1" depart="2465.05" departLane="best" departSpeed="max" color="red">
        <route edges="7 6"/>
    </vehicle>
    <vehicle id="67.0" depart="2481.63" departLane="best" departSpeed="max" color="red">
        <route edges="1 6"/>
    </vehicle>
    <vehicle id="66.1" depart="2503.20" departLane="best" departSpeed="max" color="magenta">
        <route edges="7 6"/>
    </vehicle>
    <vehicle id="65.2" depart="2508.63" departLane="best" departSpeed="max" color="red">
        <route edges="7 6"/>
    </vehicle>
    <vehicle id="67.1" depart="2515.96" departLane="best" departSpeed="max" color="red">
        <route edges="1 6"/>
    </vehicle>
    <vehicle id="64.0" depart="2517.27" departLane="best" departSpeed="max" color="magenta">
        <route edges="7 8"/>
    </vehicle>
    <vehicle id="62.1" depart="2535.72" departLane="best" departSpeed="max" color="magenta">
        <route edges="7 4"/>
    </vehicle>
    <vehicle id="61.0" depart="2556.05" departLane="best" departSpeed="max" color="red">
        <route edges="3 4"/>
    </vehicle>
    <vehicle id="64.1" depart="2571.81" departLane="best" departSpeed="max" color="magenta">
        <route edges="7 8"/>
    </vehicle>
    <vehicle id="66.2" depart="2581.36" departLane="best" departSpeed="max" color="magenta">
        <route edges="7 6"/>
    </vehicle>
    <vehicle id="65.3" depart="2596.41" departLane="best" departSpeed="max" color="red">
        <route edges="7 6"/>
    </vehicle>
    <vehicle id="65.4" depart="2638.57" departLane="best" departSpeed="max" color="red">
        <route edges="7 6"/>
    </vehicle>
    <vehicle id="65.5" depart="2638.84" departLane="best" departSpeed="max" color="red">
        <route edges="7 6"/>
    </vehicle>
    <vehicle id="67.2" depart="2651.26" departLane="best" departSpeed="max" color="red">
        <route edges="1 6"/>
    </vehicle>
    <vehicle id="65.6" depart="2662.79" departLane="best" departSpeed="max" color="red">
        <route edges="7 6"/>
    </vehicle>
    <vehicle id="77.0" depart="2707.90" departLane="best" departSpeed="max" color="magenta">
        <route edges="5 8"/>
    </vehicle>
    <vehicle id="73.0" depart="2722.71" departLane="best" departSpeed="max" color="red">
        <route edges="7 6"/>
    </vehicle>
    <vehicle id="74.0" depart="2747.94" departLane="best" departSpeed="max" color="magenta">
        <route edges="1 8"/>
    </vehicle>
    <vehicle id="73.1" depart="2785.99" departLane="best" departSpeed="max" color="red">
        <route edges="7 6"/>
    </vehicle>
    <vehicle id="77.1" depart="2794.50" departLane="best" departSpeed="max" color="magenta">
        <route edges="5 8"/>
    </vehicle>
    <vehicle id="76.0" depart="2807.78" departLane="best" departSpeed="max" color="magenta">
        <route edges="1 6"/>
    </vehicle>
    <vehicle id="71.0" depart="2812.62" departLane="best" departSpeed="max" color="red">
        <route edges="7 4"/>
    </vehicle>
    <vehicle id="72.0" depart="2814.32" departLane="best" departSpeed="max" color="magenta">
        <route edges="7 6"/>
    </vehicle>
    <vehicle id="77.2" depart="2816.10" departLane="best" departSpeed="max" color="magenta">
        <route edges="5 8"/>
    </vehicle>
    <vehicle id="73.2" depart="2831.87" departLane="best" departSpeed="max" color="red">
        <route edges="7 6"/>
    </vehicle>
    <vehicle id="73.3" depart="2834.18" departLane="best" departSpeed="max" color="red">
        <route edges="7 6"/>
    </vehicle>
    <vehicle id="73.4" depart="2838.09" departLane="best" departSpeed="max" color="red">
        <route edges="7 6"/>
    </vehicle>
    <vehicle id="75.0" depart="2843.83" departLane="best" departSpeed="max" color="red">
        <route edges="1 2"/>
    </vehicle>
    <vehicle id="69.0" depart="2858.33" departLane="best" departSpeed="max" color="red">